(PID.TID 0000.0001) 
(PID.TID 0000.0001) // ======================================================
(PID.TID 0000.0001) //                      MITgcm UV
(PID.TID 0000.0001) //                      =========
(PID.TID 0000.0001) // ======================================================
(PID.TID 0000.0001) // execution environment starting up...
(PID.TID 0000.0001) 
(PID.TID 0000.0001) // MITgcmUV version:  checkpoint67q
(PID.TID 0000.0001) // Build user:        carrolld
(PID.TID 0000.0001) // Build host:        LMC-066220
(PID.TID 0000.0001) // Build date:        Fri Apr  3 17:22:39 PDT 2020
(PID.TID 0000.0001) 
(PID.TID 0000.0001) // =======================================================
(PID.TID 0000.0001) // Execution Environment parameter file "eedata"
(PID.TID 0000.0001) // =======================================================
(PID.TID 0000.0001) ># Example "eedata" file
(PID.TID 0000.0001) ># Lines beginning "#" are comments
(PID.TID 0000.0001) ># nTx - No. threads per process in X
(PID.TID 0000.0001) ># nTy - No. threads per process in Y
(PID.TID 0000.0001) > &EEPARMS
(PID.TID 0000.0001) > nTx=1,
(PID.TID 0000.0001) > nTy=1,
(PID.TID 0000.0001) > /
(PID.TID 0000.0001) ># Note: Some systems use & as the
(PID.TID 0000.0001) ># namelist terminator. Other systems
(PID.TID 0000.0001) ># use a / character (as shown here).
(PID.TID 0000.0001) 
(PID.TID 0000.0001) // =======================================================
(PID.TID 0000.0001) // Computational Grid Specification ( see files "SIZE.h" )
(PID.TID 0000.0001) //                                  ( and "eedata"       )
(PID.TID 0000.0001) // =======================================================
(PID.TID 0000.0001)      nPx =    1 ; /* No. processes in X */
(PID.TID 0000.0001)      nPy =    1 ; /* No. processes in Y */
(PID.TID 0000.0001)      nSx =    1 ; /* No. tiles in X per process */
(PID.TID 0000.0001)      nSy =    1 ; /* No. tiles in Y per process */
(PID.TID 0000.0001)      sNx =  128 ; /* Tile size in X */
(PID.TID 0000.0001)      sNy =   64 ; /* Tile size in Y */
(PID.TID 0000.0001)      OLx =    4 ; /* Tile overlap distance in X */
(PID.TID 0000.0001)      OLy =    4 ; /* Tile overlap distance in Y */
(PID.TID 0000.0001)      nTx =    1 ; /* No. threads in X per process */
(PID.TID 0000.0001)      nTy =    1 ; /* No. threads in Y per process */
(PID.TID 0000.0001)       Nr =   15 ; /* No. levels in the vertical   */
(PID.TID 0000.0001)       Nx =  128 ; /* Total domain size in X ( = nPx*nSx*sNx ) */
(PID.TID 0000.0001)       Ny =   64 ; /* Total domain size in Y ( = nPy*nSy*sNy ) */
(PID.TID 0000.0001)   nTiles =    1 ; /* Total no. tiles per process ( = nSx*nSy ) */
(PID.TID 0000.0001)   nProcs =    1 ; /* Total no. processes ( = nPx*nPy ) */
(PID.TID 0000.0001) nThreads =    1 ; /* Total no. threads per process ( = nTx*nTy ) */
(PID.TID 0000.0001) usingMPI =    F ; /* Flag used to control whether MPI is in use */
(PID.TID 0000.0001)                   /*  note: To execute a program with MPI calls */
(PID.TID 0000.0001)                   /*  it must be launched appropriately e.g     */
(PID.TID 0000.0001)                   /*  "mpirun -np 64 ......"                    */
(PID.TID 0000.0001) useCoupler=    F ;/* Flag used to control communications with   */
(PID.TID 0000.0001)                   /*  other model components, through a coupler */
(PID.TID 0000.0001) useNest2W_parent =    F ;/* Control 2-W Nesting comm */
(PID.TID 0000.0001) useNest2W_child  =    F ;/* Control 2-W Nesting comm */
(PID.TID 0000.0001) debugMode =    F ; /* print debug msg. (sequence of S/R calls)  */
(PID.TID 0000.0001) printMapIncludesZeros=    F ; /* print zeros in Std.Output maps */
(PID.TID 0000.0001) maxLengthPrt1D=   65 /* maxLength of 1D array printed to StdOut */
(PID.TID 0000.0001) 
(PID.TID 0000.0001) // ======================================================
(PID.TID 0000.0001) // Mapping of tiles to threads
(PID.TID 0000.0001) // ======================================================
(PID.TID 0000.0001) // -o- Thread   1, tiles (   1:   1,   1:   1)
(PID.TID 0000.0001) 
(PID.TID 0000.0001) W2_READPARMS: file data.exch2 not found
(PID.TID 0000.0001) => use W2_EXCH2 default: Single sub-domain (nFacets=1)
(PID.TID 0000.0001) W2_useE2ioLayOut=    T ;/* T: use Exch2 glob IO map; F: use model default */
(PID.TID 0000.0001) W2_mapIO        =  -1 ; /* select option for Exch2 global-IO map */
(PID.TID 0000.0001) W2_printMsg     =  -1 ; /* select option for printing information */
(PID.TID 0000.0001) ===== Start setting W2 TOPOLOGY:
(PID.TID 0000.0001)  write to log-file: w2_tile_topology.0000.log
(PID.TID 0000.0001) =====       setting W2 TOPOLOGY: Done
(PID.TID 0000.0001) 
(PID.TID 0000.0001)  INI_PARMS: opening model parameter file "data"
(PID.TID 0000.0001)  OPEN_COPY_DATA_FILE: opening file data
(PID.TID 0000.0001) // =======================================================
(PID.TID 0000.0001) // Parameter file "data"
(PID.TID 0000.0001) // =======================================================
(PID.TID 0000.0001) ># ====================
(PID.TID 0000.0001) ># | Model parameters |
(PID.TID 0000.0001) ># ====================
(PID.TID 0000.0001) >#
(PID.TID 0000.0001) ># Continuous equation parameters
(PID.TID 0000.0001) > &PARM01
(PID.TID 0000.0001) > tRef           = 15*20.,
(PID.TID 0000.0001) > sRef           = 15*35.,
(PID.TID 0000.0001) > no_slip_sides  = .TRUE.,
(PID.TID 0000.0001) > no_slip_bottom = .TRUE.,
(PID.TID 0000.0001) >#
(PID.TID 0000.0001) > viscAr=1.E-3,
(PID.TID 0000.0001) >#
(PID.TID 0000.0001) > viscAh=2.E5,
(PID.TID 0000.0001) > viscAhGrid=1.E-2,
(PID.TID 0000.0001) >#
(PID.TID 0000.0001) > diffKhT=0.E3,
(PID.TID 0000.0001) > diffKhS=0.E3,
(PID.TID 0000.0001) > diffKrBL79surf= 3.E-5,
(PID.TID 0000.0001) > diffKrBL79deep= 13.E-5,
(PID.TID 0000.0001) > diffKrBL79Ho  = -2000.,
(PID.TID 0000.0001) > diffKrBL79scl = 150.,
(PID.TID 0000.0001) >#
(PID.TID 0000.0001) > bottomDragQuadratic = 0.001,
(PID.TID 0000.0001) >#when using ggl90
(PID.TID 0000.0001) > ivdc_kappa=10.,
(PID.TID 0000.0001) > implicitDiffusion=.TRUE.,
(PID.TID 0000.0001) > implicitViscosity=.TRUE.,
(PID.TID 0000.0001) > viscC4Leith=1.5,
(PID.TID 0000.0001) > viscC4Leithd=1.5,
(PID.TID 0000.0001) > viscA4GridMax=0.5,
(PID.TID 0000.0001) > useAreaViscLength=.TRUE.,
(PID.TID 0000.0001) > useRealFreshWaterFlux=.TRUE.,
(PID.TID 0000.0001) > balanceSaltClimRelax=.TRUE.,
(PID.TID 0000.0001) > allowFreezing=.FALSE.,
(PID.TID 0000.0001) > hFacMinDr=50.,
(PID.TID 0000.0001) > hFacMin=0.1,
(PID.TID 0000.0001) > hFacInf=0.1,
(PID.TID 0000.0001) > hFacSup=5.,
(PID.TID 0000.0001) > select_rStar=2,
(PID.TID 0000.0001) > nonlinFreeSurf=4,
(PID.TID 0000.0001) > gravity=9.81,
(PID.TID 0000.0001) > rhonil=1029.,
(PID.TID 0000.0001) > rhoConst=1029.,
(PID.TID 0000.0001) > rhoConstFresh=1000.,
(PID.TID 0000.0001) > convertFW2Salt=-1.,
(PID.TID 0000.0001) > eosType='JMD95Z',
(PID.TID 0000.0001) > implicitFreeSurface=.TRUE.,
(PID.TID 0000.0001) > exactConserv=.TRUE.,
(PID.TID 0000.0001) > useSingleCpuIO=.TRUE.,
(PID.TID 0000.0001) > tempAdvScheme=30,
(PID.TID 0000.0001) > saltAdvScheme=30,
(PID.TID 0000.0001) > tempVertAdvScheme=3,
(PID.TID 0000.0001) > saltVertAdvScheme=3,
(PID.TID 0000.0001) > tempImplVertAdv=.TRUE.,
(PID.TID 0000.0001) > saltImplVertAdv=.TRUE.,
(PID.TID 0000.0001) > staggerTimeStep=.TRUE.,
(PID.TID 0000.0001) > vectorInvariantMomentum=.TRUE.,
(PID.TID 0000.0001) >#when using the cd scheme:
(PID.TID 0000.0001) > useCDscheme=.TRUE.,
(PID.TID 0000.0001) > useJamartWetPoints=.TRUE.,
(PID.TID 0000.0001) > readBinaryPrec=32,
(PID.TID 0000.0001) > writeBinaryPrec=32,
(PID.TID 0000.0001) > debugLevel=1,
(PID.TID 0000.0001) > /
(PID.TID 0000.0001) >
(PID.TID 0000.0001) ># Elliptic solver parameters
(PID.TID 0000.0001) > &PARM02
(PID.TID 0000.0001) > cg2dMaxIters=300,
(PID.TID 0000.0001) > cg2dTargetResWunit=1.E-12,
(PID.TID 0000.0001) > /
(PID.TID 0000.0001) >
(PID.TID 0000.0001) ># Time stepping parameters
(PID.TID 0000.0001) > &PARM03
(PID.TID 0000.0001) > nIter0=0,
(PID.TID 0000.0001) > nTimeSteps=4,
(PID.TID 0000.0001) > forcing_In_AB=.FALSE.,
(PID.TID 0000.0001) > momDissip_In_AB=.FALSE.,
(PID.TID 0000.0001) >#when using the cd scheme:
(PID.TID 0000.0001) ># epsAB_CD = 0.25,
(PID.TID 0000.0001) > tauCD=321428.,
(PID.TID 0000.0001) > deltaTmom   =1200.,
(PID.TID 0000.0001) > deltaTtracer=1200.,
(PID.TID 0000.0001) > deltaTfreesurf=1200.,
(PID.TID 0000.0001) > deltaTClock =1200.,
(PID.TID 0000.0001) >#when using ab2:
(PID.TID 0000.0001) ># abEps = 0.1,
(PID.TID 0000.0001) >#when using ab3:
(PID.TID 0000.0001) > doAB_onGtGs=.FALSE.,
(PID.TID 0000.0001) > alph_AB=0.5,
(PID.TID 0000.0001) > beta_AB=0.281105,
(PID.TID 0000.0001) >#
(PID.TID 0000.0001) > pChkptFreq  =31536000.0,
(PID.TID 0000.0001) > chkptFreq   =31536000.0,
(PID.TID 0000.0001) > monitorFreq = 1.0,
(PID.TID 0000.0001) > dumpInitAndLast = .FALSE.,
(PID.TID 0000.0001) > adjDumpFreq = 31536000.0,
(PID.TID 0000.0001) > adjMonitorFreq = 43200.0,
(PID.TID 0000.0001) > pickupStrictlyMatch=.FALSE.,
(PID.TID 0000.0001) > periodicExternalForcing=.TRUE.,
(PID.TID 0000.0001) > externForcingPeriod=2592000.,
(PID.TID 0000.0001) > externForcingCycle=31104000.,
(PID.TID 0000.0001) > /
(PID.TID 0000.0001) >
(PID.TID 0000.0001) ># Gridding parameters
(PID.TID 0000.0001) > &PARM04
(PID.TID 0000.0001) > usingSphericalPolarGrid=.TRUE.,
(PID.TID 0000.0001) > delR=  50., 70.,  100., 140., 190.,
(PID.TID 0000.0001) >       240., 290., 340., 390., 440.,
(PID.TID 0000.0001) >       490., 540., 590., 640., 690.,
(PID.TID 0000.0001) > ygOrigin=-90.,
(PID.TID 0000.0001) > delX=128*2.8125,
(PID.TID 0000.0001) > delY=64*2.8125,
(PID.TID 0000.0001) > /
(PID.TID 0000.0001) >
(PID.TID 0000.0001) ># Input datasets
(PID.TID 0000.0001) > &PARM05
(PID.TID 0000.0001) > bathyFile       = 'bathy.bin',
(PID.TID 0000.0001) > hydrogThetaFile = 'Theta.0005184000',
(PID.TID 0000.0001) > hydrogSaltFile  = 'Salt.0005184000',
(PID.TID 0000.0001) > uVelInitFile    = 'Uvel.0005184000',
(PID.TID 0000.0001) > vVelInitFile    = 'Vvel.0005184000',
(PID.TID 0000.0001) > pSurfInitFile   = 'Eta.0005184000',
(PID.TID 0000.0001) > /
(PID.TID 0000.0001) 
(PID.TID 0000.0001)  INI_PARMS ; starts to read PARM01
(PID.TID 0000.0001)  INI_PARMS ; read PARM01 : OK
(PID.TID 0000.0001)  INI_PARMS ; starts to read PARM02
(PID.TID 0000.0001)  INI_PARMS ; read PARM02 : OK
(PID.TID 0000.0001)  INI_PARMS ; starts to read PARM03
(PID.TID 0000.0001)  INI_PARMS ; read PARM03 : OK
(PID.TID 0000.0001)  INI_PARMS ; starts to read PARM04
(PID.TID 0000.0001)  INI_PARMS ; read PARM04 : OK
(PID.TID 0000.0001)  INI_PARMS ; starts to read PARM05
(PID.TID 0000.0001)  INI_PARMS ; read PARM05 : OK
(PID.TID 0000.0001)  INI_PARMS: finished reading file "data"
(PID.TID 0000.0001)  PACKAGES_BOOT: opening data.pkg
(PID.TID 0000.0001)  OPEN_COPY_DATA_FILE: opening file data.pkg
(PID.TID 0000.0001) // =======================================================
(PID.TID 0000.0001) // Parameter file "data.pkg"
(PID.TID 0000.0001) // =======================================================
(PID.TID 0000.0001) ># Packages
(PID.TID 0000.0001) > &PACKAGES
(PID.TID 0000.0001) > useEXF        = .TRUE.,
(PID.TID 0000.0001) > useCAL        = .TRUE.,
(PID.TID 0000.0001) > useGMRedi     = .TRUE.,
(PID.TID 0000.0001) > useSeaice     = .TRUE.,
(PID.TID 0000.0001) > useGGL90      = .TRUE.,
(PID.TID 0000.0001) > useSALT_PlUME =.TRUE.,
(PID.TID 0000.0001) > useDiagnostics=.TRUE.,
(PID.TID 0000.0001) > usePTRACERS   = .TRUE.,
(PID.TID 0000.0001) > useGCHEM      = .TRUE.,
(PID.TID 0000.0001) > /
(PID.TID 0000.0001) 
(PID.TID 0000.0001)  PACKAGES_BOOT: finished reading data.pkg
(PID.TID 0000.0001)  PACKAGES_BOOT: On/Off package Summary
 --------  pkgs with a standard "usePKG" On/Off switch in "data.pkg":  --------
 pkg/ggl90                compiled   and   used ( useGGL90                 = T )
 pkg/gmredi               compiled   and   used ( useGMRedi                = T )
 pkg/cal                  compiled   and   used ( useCAL                   = T )
 pkg/exf                  compiled   and   used ( useEXF                   = T )
 pkg/smooth               compiled but not used ( useSMOOTH                = F )
 pkg/ctrl                 compiled but not used ( useCTRL                  = F )
 pkg/ptracers             compiled   and   used ( usePTRACERS              = T )
 pkg/gchem                compiled   and   used ( useGCHEM                 = T )
 pkg/seaice               compiled   and   used ( useSEAICE                = T )
 pkg/salt_plume           compiled   and   used ( useSALT_PLUME            = T )
 pkg/diagnostics          compiled   and   used ( useDiagnostics           = T )
 -------- pkgs without standard "usePKG" On/Off switch in "data.pkg":  --------
 pkg/generic_advdiff      compiled   and   used ( useGAD                   = T )
 pkg/mom_common           compiled   and   used ( momStepping              = T )
 pkg/mom_vecinv           compiled   and   used ( +vectorInvariantMomentum = T )
 pkg/cd_code              compiled   and   used ( useCDscheme              = T )
 pkg/monitor              compiled   and   used ( monitorFreq > 0.         = T )
 pkg/debug                compiled but not used ( debugMode                = F )
 pkg/exch2                compiled   and   used
 pkg/rw                   compiled   and   used
 pkg/mdsio                compiled   and   used
(PID.TID 0000.0001)  PACKAGES_BOOT: End of package Summary
(PID.TID 0000.0001) 
(PID.TID 0000.0001) CAL_READPARMS: opening data.cal
(PID.TID 0000.0001)  OPEN_COPY_DATA_FILE: opening file data.cal
(PID.TID 0000.0001) // =======================================================
(PID.TID 0000.0001) // Parameter file "data.cal"
(PID.TID 0000.0001) // =======================================================
(PID.TID 0000.0001) >#
(PID.TID 0000.0001) ># *******************
(PID.TID 0000.0001) ># Calendar Parameters
(PID.TID 0000.0001) ># *******************
(PID.TID 0000.0001) > &CAL_NML
(PID.TID 0000.0001) > TheCalendar='gregorian',
(PID.TID 0000.0001) > startDate_1=19920101,
(PID.TID 0000.0001) ># startDate_2=120000,
(PID.TID 0000.0001) > startDate_2=000000,
(PID.TID 0000.0001) > calendarDumps = .TRUE.,
(PID.TID 0000.0001) > /
(PID.TID 0000.0001) 
(PID.TID 0000.0001) CAL_READPARMS: finished reading data.cal
(PID.TID 0000.0001) EXF_READPARMS: opening data.exf
(PID.TID 0000.0001)  OPEN_COPY_DATA_FILE: opening file data.exf
(PID.TID 0000.0001) // =======================================================
(PID.TID 0000.0001) // Parameter file "data.exf"
(PID.TID 0000.0001) // =======================================================
(PID.TID 0000.0001) ># *********************
(PID.TID 0000.0001) ># External Forcing Data
(PID.TID 0000.0001) ># *********************
(PID.TID 0000.0001) >#
(PID.TID 0000.0001) > &EXF_NML_01
(PID.TID 0000.0001) >#
(PID.TID 0000.0001) > useAtmWind        = .TRUE.,
(PID.TID 0000.0001) >#NCEP VALUES:
(PID.TID 0000.0001) ># exf_albedo        = 0.15,
(PID.TID 0000.0001) ># exf_scal_BulkCdn  = 1.015,
(PID.TID 0000.0001) >#
(PID.TID 0000.0001) >#TO COMBINE WITH ALLOW_ZENITH_ANGLE:
(PID.TID 0000.0001) > exf_albedo        = 0.1,
(PID.TID 0000.0001) > useExfZenIncoming = .TRUE.,
(PID.TID 0000.0001) > select_ZenAlbedo  = 1,
(PID.TID 0000.0001) >#
(PID.TID 0000.0001) > ocean_emissivity = 0.97,
(PID.TID 0000.0001) > ice_emissivity = 0.95,
(PID.TID 0000.0001) > snow_emissivity = 0.95,
(PID.TID 0000.0001) >#
(PID.TID 0000.0001) > exf_iprec         = 32,
(PID.TID 0000.0001) > exf_yftype        = 'RL',
(PID.TID 0000.0001) > useExfYearlyFields= .TRUE.,
(PID.TID 0000.0001) > useExfCheckRange  = .FALSE.,
(PID.TID 0000.0001) > /
(PID.TID 0000.0001) >#
(PID.TID 0000.0001) > &EXF_NML_02
(PID.TID 0000.0001) > atempfile         = 'EIG_tmp2m_degC_plus_ECCO_v4r1_ctrl_2000',
(PID.TID 0000.0001) > aqhfile           = 'EIG_spfh2m_plus_ECCO_v4r1_ctrl_2000',
(PID.TID 0000.0001) > precipfile        = 'EIG_rain_plus_ECCO_v4r1_ctrl_2000',
(PID.TID 0000.0001) > uwindfile         = 'EIG_u10m_2000',
(PID.TID 0000.0001) > vwindfile         = 'EIG_v10m_2000',
(PID.TID 0000.0001) > swdownfile        = 'EIG_dsw_plus_ECCO_v4r1_ctrl_2000',
(PID.TID 0000.0001) > lwdownfile        = 'EIG_dlw_plus_ECCO_v4r1_ctrl_2000',
(PID.TID 0000.0001) > runofffile        = 'runoff-2d-Fekete-1deg-mon-V4-SMOOTH.bin',
(PID.TID 0000.0001) ># apco2file         = 'apCO2_2000',
(PID.TID 0000.0001) >#
(PID.TID 0000.0001) > atempperiod       = -12.,
(PID.TID 0000.0001) > aqhperiod         = -12.,
(PID.TID 0000.0001) > precipperiod      = -12.,
(PID.TID 0000.0001) > uwindperiod       = -12.,
(PID.TID 0000.0001) > vwindperiod       = -12.,
(PID.TID 0000.0001) > swdownperiod      = -12.,
(PID.TID 0000.0001) > lwdownperiod      = -12.,
(PID.TID 0000.0001) > runoffperiod      = -12,
(PID.TID 0000.0001) ># apco2period       = -12.,
(PID.TID 0000.0001) > /
(PID.TID 0000.0001) >#
(PID.TID 0000.0001) > &EXF_NML_03
(PID.TID 0000.0001) >#NOT FOR EIG exf_offset_atemp  = 273.3971,
(PID.TID 0000.0001) > exf_offset_atemp  = 273.15,
(PID.TID 0000.0001) >#NOT FOR NEW RUNOFF FIELD exf_inscal_runoff = 3.1710e-08,
(PID.TID 0000.0001) > exf_inscal_swdown = -1.0,
(PID.TID 0000.0001) > exf_inscal_lwdown = -1.0,
(PID.TID 0000.0001) ># to compensate for sea level rise for nlfs/realFWF
(PID.TID 0000.0001) >#precip_exfremo_intercept = 1.073E-9,
(PID.TID 0000.0001) >#precip_exfremo_slope = -3.340E-18,
(PID.TID 0000.0001) > /
(PID.TID 0000.0001) >#
(PID.TID 0000.0001) > &EXF_NML_04
(PID.TID 0000.0001) >#
(PID.TID 0000.0001) > atemp_lon0      = -178.5,
(PID.TID 0000.0001) > atemp_lon_inc   = 3.0,
(PID.TID 0000.0001) > atemp_lat0      = -88.5,
(PID.TID 0000.0001) > atemp_lat_inc   = 59*3.0,
(PID.TID 0000.0001) > atemp_nlon      = 120,
(PID.TID 0000.0001) > atemp_nlat      = 60,
(PID.TID 0000.0001) >#
(PID.TID 0000.0001) > aqh_lon0        = -178.5,
(PID.TID 0000.0001) > aqh_lon_inc     = 3.0,
(PID.TID 0000.0001) > aqh_lat0        = -88.5,
(PID.TID 0000.0001) > aqh_lat_inc     = 59*3.0,
(PID.TID 0000.0001) > aqh_nlon        = 120,
(PID.TID 0000.0001) > aqh_nlat        = 60,
(PID.TID 0000.0001) >#
(PID.TID 0000.0001) > precip_lon0     = -178.5,
(PID.TID 0000.0001) > precip_lon_inc  = 3.0,
(PID.TID 0000.0001) > precip_lat0     = -88.5,
(PID.TID 0000.0001) > precip_lat_inc  = 59*3.0,
(PID.TID 0000.0001) > precip_nlon     = 120,
(PID.TID 0000.0001) > precip_nlat     = 60,
(PID.TID 0000.0001) >#
(PID.TID 0000.0001) > uwind_lon0      = -178.5,
(PID.TID 0000.0001) > uwind_lon_inc   = 3.0,
(PID.TID 0000.0001) > uwind_lat0      = -88.5,
(PID.TID 0000.0001) > uwind_lat_inc   = 59*3.0,
(PID.TID 0000.0001) > uwind_nlon      = 120,
(PID.TID 0000.0001) > uwind_nlat      = 60,
(PID.TID 0000.0001) >#
(PID.TID 0000.0001) > vwind_lon0      = -178.5,
(PID.TID 0000.0001) > vwind_lon_inc   = 3.0,
(PID.TID 0000.0001) > vwind_lat0      = -88.5,
(PID.TID 0000.0001) > vwind_lat_inc   = 59*3.0,
(PID.TID 0000.0001) > vwind_nlon      = 120,
(PID.TID 0000.0001) > vwind_nlat      = 60,
(PID.TID 0000.0001) >#
(PID.TID 0000.0001) > swdown_lon0     = -178.5,
(PID.TID 0000.0001) > swdown_lon_inc  = 3.0,
(PID.TID 0000.0001) > swdown_lat0     = -88.5,
(PID.TID 0000.0001) > swdown_lat_inc  = 59*3.0,
(PID.TID 0000.0001) > swdown_nlon     = 120,
(PID.TID 0000.0001) > swdown_nlat     = 60,
(PID.TID 0000.0001) >#
(PID.TID 0000.0001) > lwdown_lon0     = -178.5,
(PID.TID 0000.0001) > lwdown_lon_inc  = 3.0,
(PID.TID 0000.0001) > lwdown_lat0     = -88.5,
(PID.TID 0000.0001) > lwdown_lat_inc  = 59*3.0,
(PID.TID 0000.0001) > lwdown_nlon     = 120,
(PID.TID 0000.0001) > lwdown_nlat     = 60,
(PID.TID 0000.0001) >#
(PID.TID 0000.0001) > runoff_lon0     = -178.5,
(PID.TID 0000.0001) > runoff_lon_inc  = 3.0,
(PID.TID 0000.0001) > runoff_lat0     = -88.5,
(PID.TID 0000.0001) > runoff_lat_inc  = 59*3.0,
(PID.TID 0000.0001) > runoff_nlon     = 120,
(PID.TID 0000.0001) > runoff_nlat     = 60,
(PID.TID 0000.0001) >#
(PID.TID 0000.0001) ># apco2_lon0      = -178.5,
(PID.TID 0000.0001) ># apco2_lon_inc   = 3.0,
(PID.TID 0000.0001) ># apco2_lat0      = -88.5,
(PID.TID 0000.0001) ># apco2_lat_inc   = 59*3.0,
(PID.TID 0000.0001) ># apco2_nlon      = 120,
(PID.TID 0000.0001) ># apco2_nlat      = 60,
(PID.TID 0000.0001) > /
(PID.TID 0000.0001) 
(PID.TID 0000.0001) EXF_READPARMS: reading EXF_NML_01
(PID.TID 0000.0001) EXF_READPARMS: reading EXF_NML_02
(PID.TID 0000.0001) EXF_READPARMS: reading EXF_NML_03
(PID.TID 0000.0001) EXF_READPARMS: reading EXF_NML_04
(PID.TID 0000.0001) EXF_READPARMS: finished reading data.exf
(PID.TID 0000.0001)  GGL90_READPARMS: opening data.ggl90
(PID.TID 0000.0001)  OPEN_COPY_DATA_FILE: opening file data.ggl90
(PID.TID 0000.0001) // =======================================================
(PID.TID 0000.0001) // Parameter file "data.ggl90"
(PID.TID 0000.0001) // =======================================================
(PID.TID 0000.0001) ># =====================================================================
(PID.TID 0000.0001) ># | Parameters for Gaspar et al. (1990)'s TKE vertical mixing scheme  |
(PID.TID 0000.0001) ># =====================================================================
(PID.TID 0000.0001) > &GGL90_PARM01
(PID.TID 0000.0001) > GGL90alpha=30.,
(PID.TID 0000.0001) > GGL90TKEmin  = 1.e-7,
(PID.TID 0000.0001) > GGL90TKEbottom = 1.e-6,
(PID.TID 0000.0001) > mxlMaxFlag =2,
(PID.TID 0000.0001) > mxlSurfFlag=.TRUE.,
(PID.TID 0000.0001) > /
(PID.TID 0000.0001) 
(PID.TID 0000.0001)  GGL90_READPARMS ; starts to read GGL90_PARM01
(PID.TID 0000.0001)  GGL90_READPARMS: read GGL90_PARM01 : OK
(PID.TID 0000.0001)  GGL90_READPARMS: finished reading data.ggl90
(PID.TID 0000.0001) // =======================================================
(PID.TID 0000.0001) // GGL90 configuration
(PID.TID 0000.0001) // =======================================================
(PID.TID 0000.0001) GGL90dumpFreq =   /* GGL90 state write out interval ( s ). */
(PID.TID 0000.0001)                 0.000000000000000E+00
(PID.TID 0000.0001)     ;
(PID.TID 0000.0001) GGL90taveFreq =   /* GGL90 averaging interval ( s ). */
(PID.TID 0000.0001)                 0.000000000000000E+00
(PID.TID 0000.0001)     ;
(PID.TID 0000.0001) GGL90mixingMAPS =   /* GGL90 IO flag. */
(PID.TID 0000.0001)                   F
(PID.TID 0000.0001)     ;
(PID.TID 0000.0001) GGL90writeState =   /* GGL90 IO flag. */
(PID.TID 0000.0001)                   F
(PID.TID 0000.0001)     ;
(PID.TID 0000.0001) GGL90ck =   /* GGL90 viscosity parameter. */
(PID.TID 0000.0001)                 1.000000000000000E-01
(PID.TID 0000.0001)     ;
(PID.TID 0000.0001) GGL90ceps =   /* GGL90 dissipation parameter. */
(PID.TID 0000.0001)                 7.000000000000000E-01
(PID.TID 0000.0001)     ;
(PID.TID 0000.0001) GGL90alpha =   /* GGL90 TKE diffusivity parameter. */
(PID.TID 0000.0001)                 3.000000000000000E+01
(PID.TID 0000.0001)     ;
(PID.TID 0000.0001) GGL90m2 =   /* GGL90 wind stress to vertical stress ratio. */
(PID.TID 0000.0001)                 3.750000000000000E+00
(PID.TID 0000.0001)     ;
(PID.TID 0000.0001) GGL90TKEmin =   /* GGL90 minimum kinetic energy ( m^2/s^2 ). */
(PID.TID 0000.0001)                 1.000000000000000E-07
(PID.TID 0000.0001)     ;
(PID.TID 0000.0001) GGL90TKEsurfMin =   /* GGL90 minimum surface kinetic energy ( m^2/s^2 ). */
(PID.TID 0000.0001)                 1.000000000000000E-04
(PID.TID 0000.0001)     ;
(PID.TID 0000.0001) GGL90TKEbottom =   /* GGL90 bottom kinetic energy ( m^2/s^2 ). */
(PID.TID 0000.0001)                 1.000000000000000E-06
(PID.TID 0000.0001)     ;
(PID.TID 0000.0001) GGL90viscMax =   /* GGL90 upper limit for viscosity ( m^2/s ). */
(PID.TID 0000.0001)                 1.000000000000000E+02
(PID.TID 0000.0001)     ;
(PID.TID 0000.0001) GGL90diffMax =   /* GGL90 upper limit for diffusivity ( m^2/s ). */
(PID.TID 0000.0001)                 1.000000000000000E+02
(PID.TID 0000.0001)     ;
(PID.TID 0000.0001) GGL90diffTKEh =   /* GGL90 horizontal diffusivity for TKE ( m^2/s ). */
(PID.TID 0000.0001)                 0.000000000000000E+00
(PID.TID 0000.0001)     ;
(PID.TID 0000.0001) GGL90mixingLengthMin =   /* GGL90 minimum mixing length ( m ). */
(PID.TID 0000.0001)                 1.000000000000000E-08
(PID.TID 0000.0001)     ;
(PID.TID 0000.0001) mxlMaxFlag =   /* Flag for limiting mixing-length method */
(PID.TID 0000.0001)                       2
(PID.TID 0000.0001)     ;
(PID.TID 0000.0001) mxlSurfFlag =   /* GGL90 flag for near surface mixing. */
(PID.TID 0000.0001)                   T
(PID.TID 0000.0001)     ;
(PID.TID 0000.0001) calcMeanVertShear = /* calc Mean of Vert.Shear (vs shear of Mean flow) */
(PID.TID 0000.0001)                   F
(PID.TID 0000.0001)     ;
(PID.TID 0000.0001) GGL90: GGL90TKEFile =
(PID.TID 0000.0001) GGL90writeState =   /* GGL90 Boundary condition flag. */
(PID.TID 0000.0001)                   T
(PID.TID 0000.0001)     ;
(PID.TID 0000.0001) // =======================================================
(PID.TID 0000.0001) // End of GGL90 config. summary
(PID.TID 0000.0001) // =======================================================
(PID.TID 0000.0001) 
(PID.TID 0000.0001)  GM_READPARMS: opening data.gmredi
(PID.TID 0000.0001)  OPEN_COPY_DATA_FILE: opening file data.gmredi
(PID.TID 0000.0001) // =======================================================
(PID.TID 0000.0001) // Parameter file "data.gmredi"
(PID.TID 0000.0001) // =======================================================
(PID.TID 0000.0001) ># from MOM
(PID.TID 0000.0001) ># GM_background_K: 	isopycnal diffusion coefficien
(PID.TID 0000.0001) ># GM_maxSlope:		max slope of isopycnals
(PID.TID 0000.0001) ># GM_Scrit:		transition for scaling diffusion coefficient
(PID.TID 0000.0001) ># GM_Sd:		half width scaling for diffusion coefficient
(PID.TID 0000.0001) ># real background diff:	horizontal diffusion
(PID.TID 0000.0001) >
(PID.TID 0000.0001) ># ifdef GM_VISBECK_VARIABLE_K, include following in GM_PARM01
(PID.TID 0000.0001) ># GM_Visbeck_alpha   = 0.,
(PID.TID 0000.0001) ># GM_Visbeck_length  = 2.e+5,
(PID.TID 0000.0001) ># GM_Visbeck_depth   = 1.e+3,
(PID.TID 0000.0001) ># GM_Visbeck_maxval_K= 2.5e+3,
(PID.TID 0000.0001) >
(PID.TID 0000.0001) > &GM_PARM01
(PID.TID 0000.0001) >  GM_background_K    = 1.e+3,
(PID.TID 0000.0001) >  GM_taper_scheme    = 'gkw91',
(PID.TID 0000.0001) >  GM_maxSlope        = 1.e-2,
(PID.TID 0000.0001) >  GM_Kmin_horiz      = 100.,
(PID.TID 0000.0001) >  GM_Scrit           = 4.e-3,
(PID.TID 0000.0001) >  GM_Sd              = 1.e-3,
(PID.TID 0000.0001) > /
(PID.TID 0000.0001) >
(PID.TID 0000.0001) >
(PID.TID 0000.0001) 
(PID.TID 0000.0001)  GM_READPARMS: finished reading data.gmredi
(PID.TID 0000.0001)  PTRACERS_READPARMS: opening data.ptracers
(PID.TID 0000.0001)  OPEN_COPY_DATA_FILE: opening file data.ptracers
(PID.TID 0000.0001) // =======================================================
(PID.TID 0000.0001) // Parameter file "data.ptracers"
(PID.TID 0000.0001) // =======================================================
(PID.TID 0000.0001) > &PTRACERS_PARM01
(PID.TID 0000.0001) > PTRACERS_numInUse= 31,
(PID.TID 0000.0001) > PTRACERS_Iter0= 0,
(PID.TID 0000.0001) >#
(PID.TID 0000.0001) > PTRACERS_advScheme(:)= 31*33,
(PID.TID 0000.0001) > PTRACERS_diffKh(:)= 31*0.E3,
(PID.TID 0000.0001) > PTRACERS_diffKr(:)= 31*1.E-5,
(PID.TID 0000.0001) > PTRACERS_useGMRedi(:)= 31*.TRUE.,
(PID.TID 0000.0001) >#
(PID.TID 0000.0001) > PTRACERS_EvPrRn( 1)= 0.,
(PID.TID 0000.0001) > PTRACERS_EvPrRn(18)= 0.,
(PID.TID 0000.0001) >#
(PID.TID 0000.0001) > PTRACERS_names( 1)= 'DIC',
(PID.TID 0000.0001) > PTRACERS_initialFile(1)='ptracers_optimized_01.0000000001',
(PID.TID 0000.0001) >
(PID.TID 0000.0001) > PTRACERS_names( 2)= 'NO3',
(PID.TID 0000.0001) > PTRACERS_initialFile(2)='ptracers_optimized_02.0000000001',
(PID.TID 0000.0001) >
(PID.TID 0000.0001) > PTRACERS_names( 3)= 'NO2',
(PID.TID 0000.0001) > PTRACERS_initialFile(3)='ptracers_optimized_03.0000000001',
(PID.TID 0000.0001) >
(PID.TID 0000.0001) > PTRACERS_names( 4)= 'NH4',
(PID.TID 0000.0001) > PTRACERS_initialFile(4)='ptracers_optimized_04.0000000001',
(PID.TID 0000.0001) >
(PID.TID 0000.0001) > PTRACERS_names( 5)= 'PO4',
(PID.TID 0000.0001) > PTRACERS_initialFile(5)='ptracers_optimized_05.0000000001',
(PID.TID 0000.0001) >
(PID.TID 0000.0001) > PTRACERS_names( 6)= 'FeT',
(PID.TID 0000.0001) > PTRACERS_initialFile(6)='ptracers_optimized_06.0000000001',
(PID.TID 0000.0001) >
(PID.TID 0000.0001) > PTRACERS_names( 7)= 'SiO2',
(PID.TID 0000.0001) > PTRACERS_initialFile(7)='ptracers_optimized_07.0000000001',
(PID.TID 0000.0001) >
(PID.TID 0000.0001) > PTRACERS_names( 8)= 'DOC',
(PID.TID 0000.0001) > PTRACERS_initialFile(8)='ptracers_optimized_08.0000000001',
(PID.TID 0000.0001) >
(PID.TID 0000.0001) > PTRACERS_names( 9)= 'DON',
(PID.TID 0000.0001) > PTRACERS_initialFile(9)='ptracers_optimized_09.0000000001',
(PID.TID 0000.0001) >
(PID.TID 0000.0001) > PTRACERS_names(10)= 'DOP',
(PID.TID 0000.0001) > PTRACERS_initialFile(10)='ptracers_optimized_10.0000000001',
(PID.TID 0000.0001) >
(PID.TID 0000.0001) > PTRACERS_names(11)= 'DOFe',
(PID.TID 0000.0001) > PTRACERS_initialFile(11)='ptracers_optimized_11.0000000001',
(PID.TID 0000.0001) >
(PID.TID 0000.0001) > PTRACERS_names(12)= 'POC',
(PID.TID 0000.0001) > PTRACERS_initialFile(12)='ptracers_optimized_12.0000000001',
(PID.TID 0000.0001) >
(PID.TID 0000.0001) > PTRACERS_names(13)= 'PON',
(PID.TID 0000.0001) > PTRACERS_initialFile(13)='ptracers_optimized_13.0000000001',
(PID.TID 0000.0001) >
(PID.TID 0000.0001) > PTRACERS_names(14)= 'POP',
(PID.TID 0000.0001) > PTRACERS_initialFile(14)='ptracers_optimized_14.0000000001',
(PID.TID 0000.0001) >
(PID.TID 0000.0001) > PTRACERS_names(15)= 'POFe',
(PID.TID 0000.0001) > PTRACERS_initialFile(15)='ptracers_optimized_15.0000000001',
(PID.TID 0000.0001) >
(PID.TID 0000.0001) > PTRACERS_names(16)= 'POSi',
(PID.TID 0000.0001) > PTRACERS_initialFile(16)='ptracers_optimized_16.0000000001',
(PID.TID 0000.0001) >
(PID.TID 0000.0001) > PTRACERS_names(17)= 'PIC',
(PID.TID 0000.0001) > PTRACERS_initialFile(17)='ptracers_optimized_17.0000000001',
(PID.TID 0000.0001) >
(PID.TID 0000.0001) > PTRACERS_names(18)= 'ALK',
(PID.TID 0000.0001) > PTRACERS_initialFile(18)='ptracers_optimized_18.0000000001',
(PID.TID 0000.0001) >
(PID.TID 0000.0001) > PTRACERS_names(19)= 'O2',
(PID.TID 0000.0001) > PTRACERS_initialFile(19)='ptracers_optimized_19.0000000001',
(PID.TID 0000.0001) >
(PID.TID 0000.0001) > PTRACERS_names(20)= 'c01',
(PID.TID 0000.0001) > PTRACERS_initialFile(20)='ptracers_optimized_20.0000000001',
(PID.TID 0000.0001) >
(PID.TID 0000.0001) > PTRACERS_names(21)= 'c02',
(PID.TID 0000.0001) > PTRACERS_initialFile(21)='ptracers_optimized_21.0000000001',
(PID.TID 0000.0001) >
(PID.TID 0000.0001) > PTRACERS_names(22)= 'c03',
(PID.TID 0000.0001) > PTRACERS_initialFile(22)='ptracers_optimized_22.0000000001',
(PID.TID 0000.0001) >
(PID.TID 0000.0001) > PTRACERS_names(23)= 'c04',
(PID.TID 0000.0001) > PTRACERS_initialFile(23)='ptracers_optimized_23.0000000001',
(PID.TID 0000.0001) >
(PID.TID 0000.0001) > PTRACERS_names(24)= 'c05',
(PID.TID 0000.0001) > PTRACERS_initialFile(24)='ptracers_optimized_24.0000000001',
(PID.TID 0000.0001) >
(PID.TID 0000.0001) > PTRACERS_names(25)= 'c06',
(PID.TID 0000.0001) > PTRACERS_initialFile(25)='ptracers_optimized_25.0000000001',
(PID.TID 0000.0001) >
(PID.TID 0000.0001) > PTRACERS_names(26)= 'c07',
(PID.TID 0000.0001) > PTRACERS_initialFile(26)='ptracers_optimized_26.0000000001',
(PID.TID 0000.0001) >
(PID.TID 0000.0001) > PTRACERS_names(27)= 'Chl01',
(PID.TID 0000.0001) > PTRACERS_initialFile(27)='ptracers_optimized_27.0000000001',
(PID.TID 0000.0001) >
(PID.TID 0000.0001) > PTRACERS_names(28)= 'Chl02',
(PID.TID 0000.0001) > PTRACERS_initialFile(28)='ptracers_optimized_28.0000000001',
(PID.TID 0000.0001) >
(PID.TID 0000.0001) > PTRACERS_names(29)= 'Chl03',
(PID.TID 0000.0001) > PTRACERS_initialFile(29)='ptracers_optimized_29.0000000001',
(PID.TID 0000.0001) >
(PID.TID 0000.0001) > PTRACERS_names(30)= 'Chl04',
(PID.TID 0000.0001) > PTRACERS_initialFile(30)='ptracers_optimized_30.0000000001',
(PID.TID 0000.0001) >
(PID.TID 0000.0001) > PTRACERS_names(31)= 'Chl05',
(PID.TID 0000.0001) > PTRACERS_initialFile(31)='ptracers_optimized_31.0000000001',
(PID.TID 0000.0001) >#
(PID.TID 0000.0001) > PTRACERS_units( 1)= 'uM C'
(PID.TID 0000.0001) > PTRACERS_units( 2)= 'uM N'
(PID.TID 0000.0001) > PTRACERS_units( 3)= 'uM N'
(PID.TID 0000.0001) > PTRACERS_units( 4)= 'uM N'
(PID.TID 0000.0001) > PTRACERS_units( 5)= 'uM P'
(PID.TID 0000.0001) > PTRACERS_units( 6)= 'uM Fe'
(PID.TID 0000.0001) > PTRACERS_units( 7)= 'uM Si'
(PID.TID 0000.0001) > PTRACERS_units( 8)= 'uM C'
(PID.TID 0000.0001) > PTRACERS_units( 9)= 'uM N'
(PID.TID 0000.0001) > PTRACERS_units(10)= 'uM P'
(PID.TID 0000.0001) > PTRACERS_units(11)= 'uM Fe'
(PID.TID 0000.0001) > PTRACERS_units(12)= 'uM C'
(PID.TID 0000.0001) > PTRACERS_units(13)= 'uM N'
(PID.TID 0000.0001) > PTRACERS_units(14)= 'uM P'
(PID.TID 0000.0001) > PTRACERS_units(15)= 'uM Fe'
(PID.TID 0000.0001) > PTRACERS_units(16)= 'uM Si'
(PID.TID 0000.0001) > PTRACERS_units(17)= 'uM C'
(PID.TID 0000.0001) > PTRACERS_units(18)= 'meq/m^3'
(PID.TID 0000.0001) > PTRACERS_units(19)= 'uM O'
(PID.TID 0000.0001) > PTRACERS_units(20)= 'uM C'
(PID.TID 0000.0001) > PTRACERS_units(21)= 'uM C'
(PID.TID 0000.0001) > PTRACERS_units(22)= 'uM C'
(PID.TID 0000.0001) > PTRACERS_units(23)= 'uM C'
(PID.TID 0000.0001) > PTRACERS_units(24)= 'uM C'
(PID.TID 0000.0001) > PTRACERS_units(25)= 'uM C'
(PID.TID 0000.0001) > PTRACERS_units(26)= 'uM C'
(PID.TID 0000.0001) > PTRACERS_units(27)= 'mg/m^3'
(PID.TID 0000.0001) > PTRACERS_units(28)= 'mg/m^3'
(PID.TID 0000.0001) > PTRACERS_units(29)= 'mg/m^3'
(PID.TID 0000.0001) > PTRACERS_units(30)= 'mg/m^3'
(PID.TID 0000.0001) > PTRACERS_units(31)= 'mg/m^3'
(PID.TID 0000.0001) > /
(PID.TID 0000.0001) 
(PID.TID 0000.0001)  PTRACERS_READPARMS: finished reading data.ptracers
(PID.TID 0000.0001)  GCHEM_READPARMS: opening data.gchem
(PID.TID 0000.0001)  OPEN_COPY_DATA_FILE: opening file data.gchem
(PID.TID 0000.0001) // =======================================================
(PID.TID 0000.0001) // Parameter file "data.gchem"
(PID.TID 0000.0001) // =======================================================
(PID.TID 0000.0001) > &GCHEM_PARM01
(PID.TID 0000.0001) > useDARWIN=.TRUE.,
(PID.TID 0000.0001) >  nsubtime=1,
(PID.TID 0000.0001) > /
(PID.TID 0000.0001) 
(PID.TID 0000.0001)  GCHEM_READPARMS: finished reading data.gchem
(PID.TID 0000.0001)  DARWIN_READPARMS: opening data.darwin
(PID.TID 0000.0001)  OPEN_COPY_DATA_FILE: opening file data.darwin
(PID.TID 0000.0001) // =======================================================
(PID.TID 0000.0001) // Parameter file "data.darwin"
(PID.TID 0000.0001) // =======================================================
(PID.TID 0000.0001) > &DARWIN_FORCING_PARAMS
(PID.TID 0000.0001) > ironfile = '3deg_Mahowald_2009_soluble_iron_dust.bin',
(PID.TID 0000.0001) > ironperiod = -12,
(PID.TID 0000.0001) > darwin_inscal_iron= 1000.,
(PID.TID 0000.0001) >#
(PID.TID 0000.0001) > pCO2File = 'apCO2_2000',
(PID.TID 0000.0001) ># pCO2startdate1 = 19920101,
(PID.TID 0000.0001) ># pCO2startdate2 = 120000,
(PID.TID 0000.0001) ># pCO2period     = 86400.0,
(PID.TID 0000.0001) >  pCO2period     = -12.,
(PID.TID 0000.0001) >#
(PID.TID 0000.0001) > darwin_useEXFwind = .TRUE.,
(PID.TID 0000.0001) > darwin_useQsw = .TRUE.,
(PID.TID 0000.0001) > darwin_useSEAICE = .TRUE.,
(PID.TID 0000.0001) > /
(PID.TID 0000.0001) > &DARWIN_INTERP_PARAMS
(PID.TID 0000.0001) > iron_interpMethod = 0,
(PID.TID 0000.0001) >#
(PID.TID 0000.0001) > pCO2_lon0      = -178.5,
(PID.TID 0000.0001) > pCO2_lon_inc   = 3.0,
(PID.TID 0000.0001) > pCO2_lat0      = -88.5,
(PID.TID 0000.0001) > pCO2_lat_inc   = 59*3.0,
(PID.TID 0000.0001) > pCO2_nlon      = 120,
(PID.TID 0000.0001) > pCO2_nlat      = 60,
(PID.TID 0000.0001) >
(PID.TID 0000.0001) > /
(PID.TID 0000.0001) > &DARWIN_PARAMS
(PID.TID 0000.0001) ># do not read darwin pickup
(PID.TID 0000.0001) > darwin_pickupSuff= ' ',
(PID.TID 0000.0001) > darwin_chlInitBalanced= .FALSE.,
(PID.TID 0000.0001) > darwin_chlIter0= 1,
(PID.TID 0000.0001) > darwin_seed= 56,
(PID.TID 0000.0001) > ALPFE   =  0.9273,
(PID.TID 0000.0001) > FREEFEMAX       =  1E-4,
(PID.TID 0000.0001) > SCAV_RAT        =  5.3939814814814E-7,
(PID.TID 0000.0001) > DEPTHFESED      =   7000.0,
(PID.TID 0000.0001) ># KDOC    =  1.157407407407407E-7,
(PID.TID 0000.0001) > KDOP    =  2.314814814814815E-7,
(PID.TID 0000.0001) > KDON    =  2.314814814814815E-7,
(PID.TID 0000.0001) > KDOFE   =  2.314814814814815E-7,
(PID.TID 0000.0001) ># KPOC    =  2.314814814814815E-7,
(PID.TID 0000.0001) > KPOP    =  4.629629629629630E-7,
(PID.TID 0000.0001) > KPON    =  4.629629629629630E-7,
(PID.TID 0000.0001) > KPOFE   =  4.629629629629630E-7,
(PID.TID 0000.0001) > KPOSI   =  7.716049382716049E-8,
(PID.TID 0000.0001) > SURFDICMIN  =   100.0,
(PID.TID 0000.0001) > SURFALKMIN  =   100.0,
(PID.TID 0000.0001) > /
(PID.TID 0000.0001) > &DARWIN_RANDOM_PARAMS
(PID.TID 0000.0001) > /
(PID.TID 0000.0001) > &DARWIN_TRAIT_PARAMS
(PID.TID 0000.0001) > /
(PID.TID 0000.0001) 
(PID.TID 0000.0001)  ===================================
(PID.TID 0000.0001) GCHEM_TR_REGISTER:  Start registering GCHEM tracers
(PID.TID 0000.0001)   DARWIN_TR_REGISTER:  number of DARWIN tracers=   31
(PID.TID 0000.0001)   DARWIN_TR_REGISTER:   starting at pTrc num=    1
(PID.TID 0000.0001)   DARWIN_TR_REGISTER:  Numb. Trac & SepForc Trac:   31   31
(PID.TID 0000.0001) GCHEM_TR_REGISTER:  Numb. Trac & SepForc Trac:   31   31
(PID.TID 0000.0001) 
(PID.TID 0000.0001) 
(PID.TID 0000.0001)  SEAICE_READPARMS: opening data.seaice
(PID.TID 0000.0001)  OPEN_COPY_DATA_FILE: opening file data.seaice
(PID.TID 0000.0001) // =======================================================
(PID.TID 0000.0001) // Parameter file "data.seaice"
(PID.TID 0000.0001) // =======================================================
(PID.TID 0000.0001) ># SEAICE parameters
(PID.TID 0000.0001) > &SEAICE_PARM01
(PID.TID 0000.0001) >      SEAICEuseTILT=.FALSE.,
(PID.TID 0000.0001) >      SEAICEpresH0=2.,
(PID.TID 0000.0001) >      SEAICEpresPow0=1,
(PID.TID 0000.0001) >      SEAICEpresPow1=3,
(PID.TID 0000.0001) >      SEAICE_multDim=1,
(PID.TID 0000.0001) >      SEAICErestoreUnderIce=.TRUE.,
(PID.TID 0000.0001) >      SEAICE_area_max=0.95,
(PID.TID 0000.0001) >#for backward compatibility (before 2011 june 19, those were the defaults)
(PID.TID 0000.0001) >#     SEAICE_area_floor=0.15,
(PID.TID 0000.0001) >#     SEAICE_area_reg=0.15,
(PID.TID 0000.0001) >      SEAICE_salt0=4.,
(PID.TID 0000.0001) ># for long time step:
(PID.TID 0000.0001) >#      SEAICE_deltaTevp   = 720.,
(PID.TID 0000.0001) ># for regular time step:
(PID.TID 0000.0001) >      SEAICE_deltaTevp   = 60.,
(PID.TID 0000.0001) ># for lsr:
(PID.TID 0000.0001) >#      LSR_ERROR          = 2.e-4,
(PID.TID 0000.0001) >      SEAICEuseDYNAMICS  = .TRUE.,
(PID.TID 0000.0001) ># BAD OPTION -- DO NOT USE -- SEAICE_maskRHS     = .TRUE.,
(PID.TID 0000.0001) >      MIN_ATEMP          = -40.,
(PID.TID 0000.0001) >      MIN_TICE           = -40.,
(PID.TID 0000.0001) >      SEAICEadvScheme    = 30,
(PID.TID 0000.0001) >      SEAICEuseFluxForm = .TRUE.,
(PID.TID 0000.0001) >      SEAICEadvSnow      = .TRUE.,
(PID.TID 0000.0001) >#      SEAICEadvSalt      = .TRUE.,
(PID.TID 0000.0001) >      SEAICEdiffKhHeff   = 400.,
(PID.TID 0000.0001) >      SEAICEdiffKhArea   = 400.,
(PID.TID 0000.0001) >      SEAICEdiffKhSnow   = 400.,
(PID.TID 0000.0001) >#      SEAICEdiffKhSalt   = 400.,
(PID.TID 0000.0001) >      SEAICEuseFlooding  = .TRUE.,
(PID.TID 0000.0001) >      SEAICE_mcPheePiston= 3.858024691358025E-05,
(PID.TID 0000.0001) >      SEAICE_frazilFrac  = 1.,
(PID.TID 0000.0001) >      SEAICE_mcPheeTaper = 0.,
(PID.TID 0000.0001) >      SEAICE_areaLossFormula=2,
(PID.TID 0000.0001) >      SEAICEheatConsFix  = .TRUE.,
(PID.TID 0000.0001) >      SEAICE_tempFrz0    = -1.96,
(PID.TID 0000.0001) >      SEAICE_dTempFrz_dS = 0.,
(PID.TID 0000.0001) >      SEAICEuseMetricTerms = .TRUE.,
(PID.TID 0000.0001) >      SEAICE_no_slip     = .FALSE.,
(PID.TID 0000.0001) >      SEAICE_clipVelocities = .TRUE.,
(PID.TID 0000.0001) >#take 33% out of (1-albedo)
(PID.TID 0000.0001) >      SEAICE_dryIceAlb   = 0.84,
(PID.TID 0000.0001) >      SEAICE_wetIceAlb   = 0.78,
(PID.TID 0000.0001) >      SEAICE_drySnowAlb  = 0.90,
(PID.TID 0000.0001) >      SEAICE_wetSnowAlb  = 0.8 ,
(PID.TID 0000.0001) >#default albedos
(PID.TID 0000.0001) >      SEAICE_dryIceAlb_south   = 0.75,
(PID.TID 0000.0001) >      SEAICE_wetIceAlb_south   = 0.66,
(PID.TID 0000.0001) >      SEAICE_drySnowAlb_south  = 0.84,
(PID.TID 0000.0001) >      SEAICE_wetSnowAlb_south  = 0.7,
(PID.TID 0000.0001) >#old defaults
(PID.TID 0000.0001) >      SEAICE_drag           = 0.002,
(PID.TID 0000.0001) >      SEAICE_waterDrag      = .00534499514091350826,
(PID.TID 0000.0001) >      SEAICEetaZmethod      = 0,
(PID.TID 0000.0001) >      SEAICEscaleSurfStress = .FALSE.,
(PID.TID 0000.0001) >      SEAICEaddSnowMass     = .FALSE.,
(PID.TID 0000.0001) >#initial conditions
(PID.TID 0000.0001) >      AreaFile = 'Area.0005184000',
(PID.TID 0000.0001) >      HeffFile = 'Heff.0005184000',
(PID.TID 0000.0001) > /
(PID.TID 0000.0001) >#
(PID.TID 0000.0001) > &SEAICE_PARM02
(PID.TID 0000.0001) > /
(PID.TID 0000.0001) >
(PID.TID 0000.0001) 
(PID.TID 0000.0001)  SEAICE_READPARMS: finished reading data.seaice
(PID.TID 0000.0001) SALT_PLUME_READPARMS: opening data.salt_plume
(PID.TID 0000.0001)  OPEN_COPY_DATA_FILE: opening file data.salt_plume
(PID.TID 0000.0001) // =======================================================
(PID.TID 0000.0001) // Parameter file "data.salt_plume"
(PID.TID 0000.0001) // =======================================================
(PID.TID 0000.0001) > &SALT_PLUME_PARM01
(PID.TID 0000.0001) > SPsalFRAC= 0.5D0,
(PID.TID 0000.0001) > /
(PID.TID 0000.0001) 
(PID.TID 0000.0001) SALT_PLUME_READPARMS: finished reading data.salt_plume
(PID.TID 0000.0001)  DIAGNOSTICS_READPARMS: opening data.diagnostics
(PID.TID 0000.0001)  OPEN_COPY_DATA_FILE: opening file data.diagnostics
(PID.TID 0000.0001) // =======================================================
(PID.TID 0000.0001) // Parameter file "data.diagnostics"
(PID.TID 0000.0001) // =======================================================
(PID.TID 0000.0001) ># Diagnostic Package Choices
(PID.TID 0000.0001) >#-----------------
(PID.TID 0000.0001) ># for each output-stream:
(PID.TID 0000.0001) >#  filename(n) : prefix of the output file name (only 8.c long) for outp.stream n
(PID.TID 0000.0001) >#  frequency(n):< 0 : write snap-shot output every multiple of |frequency| (iter)
(PID.TID 0000.0001) >#               > 0 : write time-average output every multiple of frequency (iter)
(PID.TID 0000.0001) >#  levels(:,n) : list of levels to write to file (Notes: declared as REAL)
(PID.TID 0000.0001) >#                 when this entry is missing, select all common levels of this list
(PID.TID 0000.0001) >#  fields(:,n) : list of diagnostics fields (8.c) (see "available_diagnostics" file
(PID.TID 0000.0001) >#                 for the list of all available diag. in this particular config)
(PID.TID 0000.0001) >#--------------------------------------------------------------------
(PID.TID 0000.0001) >#
(PID.TID 0000.0001) > &diagnostics_list
(PID.TID 0000.0001) >#
(PID.TID 0000.0001) >   dumpatlast = .TRUE.,
(PID.TID 0000.0001) >#---
(PID.TID 0000.0001) >  frequency(1) = 2635200.0,
(PID.TID 0000.0001) >   fields(1:25,1) = 'ETAN    ','SIarea  ','SIheff ','SIhsnow ',
(PID.TID 0000.0001) >#stuff that is not quite state variables (and may not be quite
(PID.TID 0000.0001) >#synchroneous) but are added here to reduce number of files
(PID.TID 0000.0001) >                 'DETADT2 ','PHIBOT  ','sIceLoad',
(PID.TID 0000.0001) >                 'MXLDEPTH','oceSPDep',
(PID.TID 0000.0001) >                 'SIatmQnt','SIatmFW ','oceQnet ','oceFWflx',
(PID.TID 0000.0001) >                 'oceTAUX ','oceTAUY ',
(PID.TID 0000.0001) >                 'ADVxHEFF','ADVyHEFF','DFxEHEFF','DFyEHEFF',
(PID.TID 0000.0001) >                 'ADVxSNOW','ADVySNOW','DFxESNOW','DFyESNOW',
(PID.TID 0000.0001) >                 'SIuice  ','SIvice  ',
(PID.TID 0000.0001) >   filename(1) = 'diags/state_2d_set1',
(PID.TID 0000.0001) >#---
(PID.TID 0000.0001) >  frequency(2) = 2635200.0,
(PID.TID 0000.0001) >   fields(1:3,2) = 'THETA   ','SALT    ',
(PID.TID 0000.0001) >#stuff that is not quite state variables (and may not be quite
(PID.TID 0000.0001) >#synchronous) but are added here to reduce file number
(PID.TID 0000.0001) >                 'DRHODR  ',
(PID.TID 0000.0001) >#                'KPPviscA','KPPdiffT','KPPdiffTS',
(PID.TID 0000.0001) >#                'GGL90TKE','GGL90Lmx','GGL90Prl',
(PID.TID 0000.0001) >#                'GGL90ArU','GGL90ArV','GGL90Kr ',
(PID.TID 0000.0001) >   filename(2) = 'diags/state_3d_set1',
(PID.TID 0000.0001) >#---
(PID.TID 0000.0001) >  frequency(3) = 2635200.0,
(PID.TID 0000.0001) >   fields(1:5,3) = 'UVELMASS','VVELMASS','WVELMASS',
(PID.TID 0000.0001) >                 'GM_PsiX ','GM_PsiY ',
(PID.TID 0000.0001) >#uvel is approximately uvelmass divided by initial hfac, so we dont output the former
(PID.TID 0000.0001) >#                'UVEL    ','VVEL    ','WVEL     ',
(PID.TID 0000.0001) >#full 3D temperature fluxes : 'DFxE_TH ','DFyE_TH ','DFrE_TH ','DFrI_TH ','ADVx_TH ','ADVy_TH ','ADVr_TH ',
(PID.TID 0000.0001) >#but for present computations I only need the vertically integrated horizontal components (see trsp_3d_set2)
(PID.TID 0000.0001) >   filename(3) = 'diags/trsp_3d_set1',
(PID.TID 0000.0001) >#---
(PID.TID 0000.0001) >  frequency(4) = 2635200.0,
(PID.TID 0000.0001) >   fields(1:8,4) = 'DFxE_TH ','DFyE_TH ','ADVx_TH ','ADVy_TH ',
(PID.TID 0000.0001) >                 'DFxE_SLT','DFyE_SLT','ADVx_SLT','ADVy_SLT',
(PID.TID 0000.0001) >   filename(4) = 'diags/trsp_3d_set2',
(PID.TID 0000.0001) >#vertically integrate fields we only use to compute vertically integr.
(PID.TID 0000.0001) >#meridional transports (also omit vertical transports, both to save space)
(PID.TID 0000.0001) >#---
(PID.TID 0000.0001) >  frequency(5) = -2635200.0,
(PID.TID 0000.0001) >   fields(1:6,5) = 'ETAN    ','SIheff  ','SIhsnow ',
(PID.TID 0000.0001) >                 'SIarea  ','sIceLoad','PHIBOT  ',
(PID.TID 0000.0001) >   filename(5) = 'diags/budg2d_snap_set1',
(PID.TID 0000.0001) >   timePhase(5)= 0.,
(PID.TID 0000.0001) >   fileFlags(5) = 'D       ',
(PID.TID 0000.0001) >#---
(PID.TID 0000.0001) >  frequency(6) = -2635200.0,
(PID.TID 0000.0001) >   fields(1:2,6) = 'THETA   ','SALT    ',
(PID.TID 0000.0001) >   filename(6) = 'diags/budg2d_snap_set2',
(PID.TID 0000.0001) >   timePhase(6)= 0.,
(PID.TID 0000.0001) >   fileFlags(6) = 'DI      ',
(PID.TID 0000.0001) >#---
(PID.TID 0000.0001) >  frequency(7) = 2635200.0,
(PID.TID 0000.0001) >   fields(1:8,7) = 'oceFWflx','SIatmFW ','TFLUX   ','SItflux ',
(PID.TID 0000.0001) >                   'SFLUX   ','oceQsw  ','oceSPflx','gDICsurf',
(PID.TID 0000.0001) >   filename(7) = 'diags/budg2d_zflux_set1',
(PID.TID 0000.0001) >   fileFlags(7) = 'D       ',
(PID.TID 0000.0001) >#---
(PID.TID 0000.0001) >  frequency(8) = 2635200.0,
(PID.TID 0000.0001) >   fields(1:13,8) ='UVELMASS','VVELMASS',
(PID.TID 0000.0001) >                 'ADVx_TH ','ADVy_TH ','DFxE_TH ','DFyE_TH ',
(PID.TID 0000.0001) >                 'ADVx_SLT','ADVy_SLT','DFxE_SLT','DFyE_SLT',
(PID.TID 0000.0001) >#the following are not transports but tendencies
(PID.TID 0000.0001) >                 'oceSPtnd','AB_gT   ','AB_gS   ',
(PID.TID 0000.0001) >   filename(8) = 'diags/budg2d_hflux_set2',
(PID.TID 0000.0001) >   fileFlags(8) = 'DI      ',
(PID.TID 0000.0001) >#---
(PID.TID 0000.0001) >  frequency(9) = 2635200.0,
(PID.TID 0000.0001) >   fields(1:8,9) ='ADVxHEFF','ADVyHEFF','DFxEHEFF','DFyEHEFF',
(PID.TID 0000.0001) >                 'ADVxSNOW','ADVySNOW','DFxESNOW','DFyESNOW',
(PID.TID 0000.0001) >   filename(9) = 'diags/budg2d_hflux_set1',
(PID.TID 0000.0001) >   fileFlags(9) = 'D       ',
(PID.TID 0000.0001) >#---
(PID.TID 0000.0001) ># this one is important because it activates the vertical advection diags
(PID.TID 0000.0001) >#  frequency(10) = 2635200.0,
(PID.TID 0000.0001) >#   fields(1:7,10) = 'ADVr_TH ','DFrE_TH ','DFrI_TH ',
(PID.TID 0000.0001) >#                  'ADVr_SLT','DFrE_SLT','DFrI_SLT',
(PID.TID 0000.0001) >#                  'WVELMASS',
(PID.TID 0000.0001) >#   filename(10) = 'diags/budg2d_zflux_set3_11',
(PID.TID 0000.0001) >#   levels(1, 10)= 11.,
(PID.TID 0000.0001) >#   fileFlags(10) = 'D       ',
(PID.TID 0000.0001) >#---
(PID.TID 0000.0001) >  frequency(11) = 2635200.0,
(PID.TID 0000.0001) >   fields(1:10,11) ='SRELAX  ','TRELAX  ','WTHMASS ','WSLTMASS',
(PID.TID 0000.0001) >                 'oceSflux','oceQnet ','SIatmQnt',
(PID.TID 0000.0001) >                 'SIaaflux','SIsnPrcp','SIacSubl',
(PID.TID 0000.0001) >   filename(11) = 'diags/budg2d_zflux_set2',
(PID.TID 0000.0001) >   fileFlags(11) = 'D       ',
(PID.TID 0000.0001) >#---
(PID.TID 0000.0001) >#  frequency(12) = 2635200.0,
(PID.TID 0000.0001) >#   fields(1:13,12) ='UVELMASS','VVELMASS',
(PID.TID 0000.0001) >#                 'ADVx_TH ','ADVy_TH ','DFxE_TH ','DFyE_TH ',
(PID.TID 0000.0001) >#                 'ADVx_SLT','ADVy_SLT','DFxE_SLT','DFyE_SLT',
(PID.TID 0000.0001) >#                 'oceSPtnd','AB_gT   ','AB_gS   ',
(PID.TID 0000.0001) >#   filename(12) = 'diags/budg2d_hflux_set3_11',
(PID.TID 0000.0001) >#   levels(1:40,12) = 11.,12.,13.,14.,15.,16.,17.,18.,19.,20.,
(PID.TID 0000.0001) >#                     21.,22.,23.,24.,25.,26.,27.,28.,29.,30.,
(PID.TID 0000.0001) >#                     31.,32.,33.,34.,35.,36.,37.,38.,39.,40.,
(PID.TID 0000.0001) >#                     41.,42.,43.,44.,45.,46.,47.,48.,49.,50.,
(PID.TID 0000.0001) >#   fileFlags(12) = 'DI      ',
(PID.TID 0000.0001) >#---
(PID.TID 0000.0001) >#  frequency(13) = -2635200.0,
(PID.TID 0000.0001) >#   fields(1:2,13) = 'THETA   ','SALT    ',
(PID.TID 0000.0001) >#   filename(13) = 'diags/budg2d_snap_set3_11',
(PID.TID 0000.0001) >#   timePhase(13)= 0.,
(PID.TID 0000.0001) >#   levels(1:40,13) = 11.,12.,13.,14.,15.,16.,17.,18.,19.,20.,
(PID.TID 0000.0001) >#                     21.,22.,23.,24.,25.,26.,27.,28.,29.,30.,
(PID.TID 0000.0001) >#                     31.,32.,33.,34.,35.,36.,37.,38.,39.,40.,
(PID.TID 0000.0001) >#                     41.,42.,43.,44.,45.,46.,47.,48.,49.,50.,
(PID.TID 0000.0001) >#   fileFlags(13) = 'DI      ',
(PID.TID 0000.0001) >#---
(PID.TID 0000.0001) >  frequency(14) = 2635200.0,
(PID.TID 0000.0001) >   fields(1:8,14) = 'DFxE_TH ','DFyE_TH ','ADVx_TH ','ADVy_TH ',
(PID.TID 0000.0001) >                 'DFxE_SLT','DFyE_SLT','ADVx_SLT','ADVy_SLT',
(PID.TID 0000.0001) >   filename(14) = 'diags/trsp_2d_set1',
(PID.TID 0000.0001) >#vertically integrate fields we only use to compute vertically integr.
(PID.TID 0000.0001) >#meridional transports (also omit vertical transports, both to save space)
(PID.TID 0000.0001) >   fileFlags(14) = ' I      ',
(PID.TID 0000.0001) >#---
(PID.TID 0000.0001) >  frequency(15) = 2635200.0,
(PID.TID 0000.0001) >   fields(1:3,15) = 'RHOAnoma','PHIHYD  ','oceSPtnd',
(PID.TID 0000.0001) >   filename(15) = 'diags/state_3d_set2',
(PID.TID 0000.0001) >#---
(PID.TID 0000.0001) >  frequency(16) = 2635200.0,
(PID.TID 0000.0001) >   fields(1:7,16) = 'ADVr_TH ','DFrE_TH ','DFrI_TH ',
(PID.TID 0000.0001) >        'ADVr_SLT','DFrE_SLT','DFrI_SLT','WVELMASS',
(PID.TID 0000.0001) >   filename(16) = 'diags/trsp_3d_set3',
(PID.TID 0000.0001) >#---
(PID.TID 0000.0001) >  frequency(17) = 2635200.0,
(PID.TID 0000.0001) >   fields(1:7,17) = 'TFLUX   ','SItflux ','SFLUX   ',
(PID.TID 0000.0001) >        'oceQsw  ','oceSPflx','SIsnPrcp','SIacSubl',
(PID.TID 0000.0001) >   filename(17) = 'diags/state_2d_set2',
(PID.TID 0000.0001) >#---
(PID.TID 0000.0001) >  frequency(18) = -2635200.0,
(PID.TID 0000.0001) >   fields(1:3,18) = 'SALT    ','TRAC01  ','TRAC06  ',
(PID.TID 0000.0001) >   timePhase(18)= 0.,
(PID.TID 0000.0001) >   filename(18) = 'diags/state_3d_snap_set1',
(PID.TID 0000.0001) >#---
(PID.TID 0000.0001) >  frequency(19) = 2635200.0,
(PID.TID 0000.0001) >   fields(1:8,19) = 'TRAC01  ','ADVxTr01','ADVyTr01','ADVrTr01',
(PID.TID 0000.0001) >        'DFxETr01','DFyETr01','DFrETr01','DFrITr01',
(PID.TID 0000.0001) >   filename(19) = 'diags/dic_physics',
(PID.TID 0000.0001) >#---
(PID.TID 0000.0001) >  frequency(20) = 2635200.0,
(PID.TID 0000.0001) >   fields(1,20) = 'gDAR01  ',
(PID.TID 0000.0001) >  filename(20) = 'diags/dic_biology',
(PID.TID 0000.0001) >#---
(PID.TID 0000.0001) >  filename(21) = 'diags/CO2_FLUX_BUDGET_DEPTH',
(PID.TID 0000.0001) >   frequency(21) = 2635200.0,
(PID.TID 0000.0001) >   fields(1,21) = 'TRAC01  ','THETA   ','SALT    ',
(PID.TID 0000.0001) >                  'TRAC18  ','TRAC05  ','TRAC07  ',
(PID.TID 0000.0001) >#---
(PID.TID 0000.0001) >  filename(22) = 'diags/CO2_FLUX_BUDGET_SURF',
(PID.TID 0000.0001) >   frequency(22) = 2635200.0,
(PID.TID 0000.0001) >   levels(1,22) = 1.,
(PID.TID 0000.0001) >   fields(1,22) = 'fluxCO2 ','gDICsurf',
(PID.TID 0000.0001) >                  'surfpCO2',
(PID.TID 0000.0001) >#---
(PID.TID 0000.0001) >  frequency(23) = 2635200.0,
(PID.TID 0000.0001) >   fields(1:8,23) = 'TRAC06  ','ADVxTr06','ADVyTr06','ADVrTr06',
(PID.TID 0000.0001) >        'DFxETr06','DFyETr06','DFrETr06','DFrITr06',
(PID.TID 0000.0001) >   filename(23) = 'diags/fe_physics',
(PID.TID 0000.0001) >#---
(PID.TID 0000.0001) >  frequency(24) = 2635200.0,
(PID.TID 0000.0001) >   fields(1:5,24) = 'C_Fe    ','S_Fe    ','gDAR06  ','sedFe   ',
(PID.TID 0000.0001) >                    'freeFe  ',
(PID.TID 0000.0001) >   filename(24) = 'diags/fe_darwin_3d',
(PID.TID 0000.0001) >#---
(PID.TID 0000.0001) >  frequency(25) = 2635200.0,
(PID.TID 0000.0001) >   fields(1,25) = 'sfcSolFe',
(PID.TID 0000.0001) >   filename(25) = 'diags/fe_darwin_2d',
(PID.TID 0000.0001) >#---
(PID.TID 0000.0001) >
(PID.TID 0000.0001) > /
(PID.TID 0000.0001) >
(PID.TID 0000.0001) > /
(PID.TID 0000.0001) >#
(PID.TID 0000.0001) >#
(PID.TID 0000.0001) ># Parameter for Diagnostics of per level statistics:
(PID.TID 0000.0001) >#-----------------
(PID.TID 0000.0001) ># for each output-stream:
(PID.TID 0000.0001) >#  stat_fname(n) : prefix of the output file name (only 8.c long) for outp.stream n
(PID.TID 0000.0001) >#  stat_freq(n):< 0 : write snap-shot output every |stat_freq| seconds
(PID.TID 0000.0001) >#               > 0 : write time-average output every stat_freq seconds
(PID.TID 0000.0001) >#  stat_phase(n)    : write at time = stat_phase + multiple of |stat_freq|
(PID.TID 0000.0001) >#  stat_region(:,n) : list of "regions" (default: 1 region only=global)
(PID.TID 0000.0001) >#  stat_fields(:,n) : list of diagnostics fields (8.c) (see "available_diagnostics.log"
(PID.TID 0000.0001) >#                 file for the list of all available diag. in this particular config)
(PID.TID 0000.0001) >#-----------------
(PID.TID 0000.0001) > &DIAG_STATIS_PARMS
(PID.TID 0000.0001) ># diagSt_regMaskFile='basin_masks_eccollc_90x50.bin',
(PID.TID 0000.0001) ># nSetRegMskFile=1,
(PID.TID 0000.0001) ># set_regMask(1)= 1,  1,  1,  1,  1,  1,  1,  1,  1,
(PID.TID 0000.0001) >#                 1,  1,  1,  1,  1,  1,  1,  1
(PID.TID 0000.0001) ># val_regMask(1)= 1., 2., 3., 4., 5., 6., 7., 8., 9.,
(PID.TID 0000.0001) >#                10.,11.,12.,13.,14.,15.,16.,17.
(PID.TID 0000.0001) >##---
(PID.TID 0000.0001) ># stat_fields(1,1)= 'ETAN    ','ETANSQ  ','DETADT2 ',
(PID.TID 0000.0001) >#                   'UVEL    ','VVEL    ','WVEL    ',
(PID.TID 0000.0001) >#                   'THETA   ','SALT    ',
(PID.TID 0000.0001) >#    stat_fname(1)= 'dynStDiag',
(PID.TID 0000.0001) >#     stat_freq(1)= 3153600.,
(PID.TID 0000.0001) ># stat_region(1,1)=  1, 2, 3, 4, 5, 6, 7, 8, 9,
(PID.TID 0000.0001) >#                   10,11,12,13,14,15,16,17
(PID.TID 0000.0001) >##---
(PID.TID 0000.0001) ># stat_fields(1,2)= 'oceTAUX ','oceTAUY ',
(PID.TID 0000.0001) >#                   'surForcT','surForcS','TFLUX   ','SFLUX   ',
(PID.TID 0000.0001) >#                   'oceQnet ','oceSflux','oceFWflx',
(PID.TID 0000.0001) >#    stat_fname(2)= 'surfStDiag',
(PID.TID 0000.0001) >#     stat_freq(2)= 3153600.,
(PID.TID 0000.0001) ># stat_region(1,2)=  1, 2, 3, 4, 5, 6, 7, 8, 9,
(PID.TID 0000.0001) >#                   10,11,12,13,14,15,16,17
(PID.TID 0000.0001) > /
(PID.TID 0000.0001) 
(PID.TID 0000.0001) S/R DIAGNOSTICS_READPARMS, read namelist "diagnostics_list": start
(PID.TID 0000.0001) S/R DIAGNOSTICS_READPARMS, read namelist "diagnostics_list": OK
(PID.TID 0000.0001) S/R DIAGNOSTICS_READPARMS, read namelist "DIAG_STATIS_PARMS": start
(PID.TID 0000.0001) S/R DIAGNOSTICS_READPARMS, read namelist "DIAG_STATIS_PARMS": OK
(PID.TID 0000.0001)  DIAGNOSTICS_READPARMS: global parameter summary:
(PID.TID 0000.0001)  dumpAtLast = /* always write time-ave diags at the end */
(PID.TID 0000.0001)                   T
(PID.TID 0000.0001)     ;
(PID.TID 0000.0001)  diag_mnc =   /* write NetCDF output files */
(PID.TID 0000.0001)                   F
(PID.TID 0000.0001)     ;
(PID.TID 0000.0001)  useMissingValue = /* put MissingValue where mask = 0 */
(PID.TID 0000.0001)                   F
(PID.TID 0000.0001)     ;
(PID.TID 0000.0001)  diagCG_maxIters = /* max number of iters in diag_cg2d */
(PID.TID 0000.0001)                     300
(PID.TID 0000.0001)     ;
(PID.TID 0000.0001)  diagCG_resTarget = /* residual target for diag_cg2d */
(PID.TID 0000.0001)                 1.000000000000000E-07
(PID.TID 0000.0001)     ;
(PID.TID 0000.0001)  diagCG_pcOffDFac = /* preconditioner off-diagonal factor */
(PID.TID 0000.0001)                 9.611687812379854E-01
(PID.TID 0000.0001)     ;
(PID.TID 0000.0001) -----------------------------------------------------
(PID.TID 0000.0001)  DIAGNOSTICS_READPARMS: active diagnostics summary:
(PID.TID 0000.0001) -----------------------------------------------------
(PID.TID 0000.0001) Creating Output Stream: diags/state_2d_set1
(PID.TID 0000.0001) Output Frequency:    2635200.000000 ; Phase:           0.000000
(PID.TID 0000.0001)  Averaging Freq.:    2635200.000000 , Phase:           0.000000 , Cycle:   1
(PID.TID 0000.0001)  missing value: -9.990000000000E+02
(PID.TID 0000.0001)  Levels:    will be set later
(PID.TID 0000.0001)  Fields:    ETAN     SIarea   SIheff   SIhsnow  DETADT2  PHIBOT   sIceLoad MXLDEPTH oceSPDep SIatmQnt
(PID.TID 0000.0001)  Fields:    SIatmFW  oceQnet  oceFWflx oceTAUX  oceTAUY  ADVxHEFF ADVyHEFF DFxEHEFF DFyEHEFF ADVxSNOW
(PID.TID 0000.0001)  Fields:    ADVySNOW DFxESNOW DFyESNOW SIuice   SIvice
(PID.TID 0000.0001) Creating Output Stream: diags/state_3d_set1
(PID.TID 0000.0001) Output Frequency:    2635200.000000 ; Phase:           0.000000
(PID.TID 0000.0001)  Averaging Freq.:    2635200.000000 , Phase:           0.000000 , Cycle:   1
(PID.TID 0000.0001)  missing value: -9.990000000000E+02
(PID.TID 0000.0001)  Levels:    will be set later
(PID.TID 0000.0001)  Fields:    THETA    SALT     DRHODR
(PID.TID 0000.0001) Creating Output Stream: diags/trsp_3d_set1
(PID.TID 0000.0001) Output Frequency:    2635200.000000 ; Phase:           0.000000
(PID.TID 0000.0001)  Averaging Freq.:    2635200.000000 , Phase:           0.000000 , Cycle:   1
(PID.TID 0000.0001)  missing value: -9.990000000000E+02
(PID.TID 0000.0001)  Levels:    will be set later
(PID.TID 0000.0001)  Fields:    UVELMASS VVELMASS WVELMASS GM_PsiX  GM_PsiY
(PID.TID 0000.0001) Creating Output Stream: diags/trsp_3d_set2
(PID.TID 0000.0001) Output Frequency:    2635200.000000 ; Phase:           0.000000
(PID.TID 0000.0001)  Averaging Freq.:    2635200.000000 , Phase:           0.000000 , Cycle:   1
(PID.TID 0000.0001)  missing value: -9.990000000000E+02
(PID.TID 0000.0001)  Levels:    will be set later
(PID.TID 0000.0001)  Fields:    DFxE_TH  DFyE_TH  ADVx_TH  ADVy_TH  DFxE_SLT DFyE_SLT ADVx_SLT ADVy_SLT
(PID.TID 0000.0001) Creating Output Stream: diags/budg2d_snap_set1
(PID.TID 0000.0001) Output Frequency:   -2635200.000000 ; Phase:           0.000000
(PID.TID 0000.0001)  Averaging Freq.:          0.000000 , Phase:           0.000000 , Cycle:   1
(PID.TID 0000.0001)  missing value: -9.990000000000E+02 ; F-Flags="D       "
(PID.TID 0000.0001)  Levels:    will be set later
(PID.TID 0000.0001)  Fields:    ETAN     SIheff   SIhsnow  SIarea   sIceLoad PHIBOT
(PID.TID 0000.0001) Creating Output Stream: diags/budg2d_snap_set2
(PID.TID 0000.0001) Output Frequency:   -2635200.000000 ; Phase:           0.000000
(PID.TID 0000.0001)  Averaging Freq.:          0.000000 , Phase:           0.000000 , Cycle:   1
(PID.TID 0000.0001)  missing value: -9.990000000000E+02 ; F-Flags="DI      "
(PID.TID 0000.0001)  Cumulate all Levels (to be set later)
(PID.TID 0000.0001)  Fields:    THETA    SALT
(PID.TID 0000.0001) Creating Output Stream: diags/budg2d_zflux_set1
(PID.TID 0000.0001) Output Frequency:    2635200.000000 ; Phase:           0.000000
(PID.TID 0000.0001)  Averaging Freq.:    2635200.000000 , Phase:           0.000000 , Cycle:   1
(PID.TID 0000.0001)  missing value: -9.990000000000E+02 ; F-Flags="D       "
(PID.TID 0000.0001)  Levels:    will be set later
(PID.TID 0000.0001)  Fields:    oceFWflx SIatmFW  TFLUX    SItflux  SFLUX    oceQsw   oceSPflx gDICsurf
(PID.TID 0000.0001) Creating Output Stream: diags/budg2d_hflux_set2
(PID.TID 0000.0001) Output Frequency:    2635200.000000 ; Phase:           0.000000
(PID.TID 0000.0001)  Averaging Freq.:    2635200.000000 , Phase:           0.000000 , Cycle:   1
(PID.TID 0000.0001)  missing value: -9.990000000000E+02 ; F-Flags="DI      "
(PID.TID 0000.0001)  Cumulate all Levels (to be set later)
(PID.TID 0000.0001)  Fields:    UVELMASS VVELMASS ADVx_TH  ADVy_TH  DFxE_TH  DFyE_TH  ADVx_SLT ADVy_SLT DFxE_SLT DFyE_SLT
(PID.TID 0000.0001)  Fields:    oceSPtnd AB_gT    AB_gS
(PID.TID 0000.0001) Creating Output Stream: diags/budg2d_hflux_set1
(PID.TID 0000.0001) Output Frequency:    2635200.000000 ; Phase:           0.000000
(PID.TID 0000.0001)  Averaging Freq.:    2635200.000000 , Phase:           0.000000 , Cycle:   1
(PID.TID 0000.0001)  missing value: -9.990000000000E+02 ; F-Flags="D       "
(PID.TID 0000.0001)  Levels:    will be set later
(PID.TID 0000.0001)  Fields:    ADVxHEFF ADVyHEFF DFxEHEFF DFyEHEFF ADVxSNOW ADVySNOW DFxESNOW DFyESNOW
(PID.TID 0000.0001) Creating Output Stream: diags/budg2d_zflux_set2
(PID.TID 0000.0001) Output Frequency:    2635200.000000 ; Phase:           0.000000
(PID.TID 0000.0001)  Averaging Freq.:    2635200.000000 , Phase:           0.000000 , Cycle:   1
(PID.TID 0000.0001)  missing value: -9.990000000000E+02 ; F-Flags="D       "
(PID.TID 0000.0001)  Levels:    will be set later
(PID.TID 0000.0001)  Fields:    SRELAX   TRELAX   WTHMASS  WSLTMASS oceSflux oceQnet  SIatmQnt SIaaflux SIsnPrcp SIacSubl
(PID.TID 0000.0001) Creating Output Stream: diags/trsp_2d_set1
(PID.TID 0000.0001) Output Frequency:    2635200.000000 ; Phase:           0.000000
(PID.TID 0000.0001)  Averaging Freq.:    2635200.000000 , Phase:           0.000000 , Cycle:   1
(PID.TID 0000.0001)  missing value: -9.990000000000E+02 ; F-Flags=" I      "
(PID.TID 0000.0001)  Cumulate all Levels (to be set later)
(PID.TID 0000.0001)  Fields:    DFxE_TH  DFyE_TH  ADVx_TH  ADVy_TH  DFxE_SLT DFyE_SLT ADVx_SLT ADVy_SLT
(PID.TID 0000.0001) Creating Output Stream: diags/state_3d_set2
(PID.TID 0000.0001) Output Frequency:    2635200.000000 ; Phase:           0.000000
(PID.TID 0000.0001)  Averaging Freq.:    2635200.000000 , Phase:           0.000000 , Cycle:   1
(PID.TID 0000.0001)  missing value: -9.990000000000E+02
(PID.TID 0000.0001)  Levels:    will be set later
(PID.TID 0000.0001)  Fields:    RHOAnoma PHIHYD   oceSPtnd
(PID.TID 0000.0001) Creating Output Stream: diags/trsp_3d_set3
(PID.TID 0000.0001) Output Frequency:    2635200.000000 ; Phase:           0.000000
(PID.TID 0000.0001)  Averaging Freq.:    2635200.000000 , Phase:           0.000000 , Cycle:   1
(PID.TID 0000.0001)  missing value: -9.990000000000E+02
(PID.TID 0000.0001)  Levels:    will be set later
(PID.TID 0000.0001)  Fields:    ADVr_TH  DFrE_TH  DFrI_TH  ADVr_SLT DFrE_SLT DFrI_SLT WVELMASS
(PID.TID 0000.0001) Creating Output Stream: diags/state_2d_set2
(PID.TID 0000.0001) Output Frequency:    2635200.000000 ; Phase:           0.000000
(PID.TID 0000.0001)  Averaging Freq.:    2635200.000000 , Phase:           0.000000 , Cycle:   1
(PID.TID 0000.0001)  missing value: -9.990000000000E+02
(PID.TID 0000.0001)  Levels:    will be set later
(PID.TID 0000.0001)  Fields:    TFLUX    SItflux  SFLUX    oceQsw   oceSPflx SIsnPrcp SIacSubl
(PID.TID 0000.0001) Creating Output Stream: diags/state_3d_snap_set1
(PID.TID 0000.0001) Output Frequency:   -2635200.000000 ; Phase:           0.000000
(PID.TID 0000.0001)  Averaging Freq.:          0.000000 , Phase:           0.000000 , Cycle:   1
(PID.TID 0000.0001)  missing value: -9.990000000000E+02
(PID.TID 0000.0001)  Levels:    will be set later
(PID.TID 0000.0001)  Fields:    SALT     TRAC01   TRAC06
(PID.TID 0000.0001) Creating Output Stream: diags/dic_physics
(PID.TID 0000.0001) Output Frequency:    2635200.000000 ; Phase:           0.000000
(PID.TID 0000.0001)  Averaging Freq.:    2635200.000000 , Phase:           0.000000 , Cycle:   1
(PID.TID 0000.0001)  missing value: -9.990000000000E+02
(PID.TID 0000.0001)  Levels:    will be set later
(PID.TID 0000.0001)  Fields:    TRAC01   ADVxTr01 ADVyTr01 ADVrTr01 DFxETr01 DFyETr01 DFrETr01 DFrITr01
(PID.TID 0000.0001) Creating Output Stream: diags/dic_biology
(PID.TID 0000.0001) Output Frequency:    2635200.000000 ; Phase:           0.000000
(PID.TID 0000.0001)  Averaging Freq.:    2635200.000000 , Phase:           0.000000 , Cycle:   1
(PID.TID 0000.0001)  missing value: -9.990000000000E+02
(PID.TID 0000.0001)  Levels:    will be set later
(PID.TID 0000.0001)  Fields:    gDAR01
(PID.TID 0000.0001) Creating Output Stream: diags/CO2_FLUX_BUDGET_DEPTH
(PID.TID 0000.0001) Output Frequency:    2635200.000000 ; Phase:           0.000000
(PID.TID 0000.0001)  Averaging Freq.:    2635200.000000 , Phase:           0.000000 , Cycle:   1
(PID.TID 0000.0001)  missing value: -9.990000000000E+02
(PID.TID 0000.0001)  Levels:    will be set later
(PID.TID 0000.0001)  Fields:    TRAC01   THETA    SALT     TRAC18   TRAC05   TRAC07
(PID.TID 0000.0001) Creating Output Stream: diags/CO2_FLUX_BUDGET_SURF
(PID.TID 0000.0001) Output Frequency:    2635200.000000 ; Phase:           0.000000
(PID.TID 0000.0001)  Averaging Freq.:    2635200.000000 , Phase:           0.000000 , Cycle:   1
(PID.TID 0000.0001)  missing value: -9.990000000000E+02
(PID.TID 0000.0001)  Levels:       1.
(PID.TID 0000.0001)  Fields:    fluxCO2  gDICsurf surfpCO2
(PID.TID 0000.0001) Creating Output Stream: diags/fe_physics
(PID.TID 0000.0001) Output Frequency:    2635200.000000 ; Phase:           0.000000
(PID.TID 0000.0001)  Averaging Freq.:    2635200.000000 , Phase:           0.000000 , Cycle:   1
(PID.TID 0000.0001)  missing value: -9.990000000000E+02
(PID.TID 0000.0001)  Levels:    will be set later
(PID.TID 0000.0001)  Fields:    TRAC06   ADVxTr06 ADVyTr06 ADVrTr06 DFxETr06 DFyETr06 DFrETr06 DFrITr06
(PID.TID 0000.0001) Creating Output Stream: diags/fe_darwin_3d
(PID.TID 0000.0001) Output Frequency:    2635200.000000 ; Phase:           0.000000
(PID.TID 0000.0001)  Averaging Freq.:    2635200.000000 , Phase:           0.000000 , Cycle:   1
(PID.TID 0000.0001)  missing value: -9.990000000000E+02
(PID.TID 0000.0001)  Levels:    will be set later
(PID.TID 0000.0001)  Fields:    C_Fe     S_Fe     gDAR06   sedFe    freeFe
(PID.TID 0000.0001) Creating Output Stream: diags/fe_darwin_2d
(PID.TID 0000.0001) Output Frequency:    2635200.000000 ; Phase:           0.000000
(PID.TID 0000.0001)  Averaging Freq.:    2635200.000000 , Phase:           0.000000 , Cycle:   1
(PID.TID 0000.0001)  missing value: -9.990000000000E+02
(PID.TID 0000.0001)  Levels:    will be set later
(PID.TID 0000.0001)  Fields:    sfcSolFe
(PID.TID 0000.0001) -----------------------------------------------------
(PID.TID 0000.0001)  DIAGNOSTICS_READPARMS: statistics diags. summary:
(PID.TID 0000.0001) -----------------------------------------------------
(PID.TID 0000.0001) 
(PID.TID 0000.0001) SET_PARMS: done
(PID.TID 0000.0001) Enter INI_VERTICAL_GRID: setInterFDr=    T ; setCenterDr=    F
(PID.TID 0000.0001) %MON XC_max                       =   3.5859375000000E+02
(PID.TID 0000.0001) %MON XC_min                       =   1.4062500000000E+00
(PID.TID 0000.0001) %MON XC_mean                      =   1.8000000000000E+02
(PID.TID 0000.0001) %MON XC_sd                        =   1.0391987692599E+02
(PID.TID 0000.0001) %MON XG_max                       =   3.5718750000000E+02
(PID.TID 0000.0001) %MON XG_min                       =   0.0000000000000E+00
(PID.TID 0000.0001) %MON XG_mean                      =   1.7859375000000E+02
(PID.TID 0000.0001) %MON XG_sd                        =   1.0391987692599E+02
(PID.TID 0000.0001) %MON DXC_max                      =   3.1259246843155E+05
(PID.TID 0000.0001) %MON DXC_min                      =   7.6737143816223E+03
(PID.TID 0000.0001) %MON DXC_mean                     =   1.9908248704234E+05
(PID.TID 0000.0001) %MON DXC_sd                       =   9.6190602240068E+04
(PID.TID 0000.0001) %MON DXF_max                      =   3.1259246843155E+05
(PID.TID 0000.0001) %MON DXF_min                      =   7.6737143816223E+03
(PID.TID 0000.0001) %MON DXF_mean                     =   1.9908248704234E+05
(PID.TID 0000.0001) %MON DXF_sd                       =   9.6190602240068E+04
(PID.TID 0000.0001) %MON DXG_max                      =   3.1268664380261E+05
(PID.TID 0000.0001) %MON DXG_min                      =   0.0000000000000E+00
(PID.TID 0000.0001) %MON DXG_mean                     =   1.9902252711933E+05
(PID.TID 0000.0001) %MON DXG_sd                       =   9.6314600686012E+04
(PID.TID 0000.0001) %MON DXV_max                      =   3.1268664380261E+05
(PID.TID 0000.0001) %MON DXV_min                      =   0.0000000000000E+00
(PID.TID 0000.0001) %MON DXV_mean                     =   1.9902252711933E+05
(PID.TID 0000.0001) %MON DXV_sd                       =   9.6314600686012E+04
(PID.TID 0000.0001) %MON YC_max                       =   8.8593750000000E+01
(PID.TID 0000.0001) %MON YC_min                       =  -8.8593750000000E+01
(PID.TID 0000.0001) %MON YC_mean                      =   0.0000000000000E+00
(PID.TID 0000.0001) %MON YC_sd                        =   5.1955180880375E+01
(PID.TID 0000.0001) %MON YG_max                       =   8.7187500000000E+01
(PID.TID 0000.0001) %MON YG_min                       =  -9.0000000000000E+01
(PID.TID 0000.0001) %MON YG_mean                      =  -1.4062500000000E+00
(PID.TID 0000.0001) %MON YG_sd                        =   5.1955180880375E+01
(PID.TID 0000.0001) %MON DYC_max                      =   3.1268664380261E+05
(PID.TID 0000.0001) %MON DYC_min                      =   3.1268664380261E+05
(PID.TID 0000.0001) %MON DYC_mean                     =   3.1268664380263E+05
(PID.TID 0000.0001) %MON DYC_sd                       =   2.4156179279089E-08
(PID.TID 0000.0001) %MON DYF_max                      =   3.1268664380261E+05
(PID.TID 0000.0001) %MON DYF_min                      =   3.1268664380261E+05
(PID.TID 0000.0001) %MON DYF_mean                     =   3.1268664380263E+05
(PID.TID 0000.0001) %MON DYF_sd                       =   2.4156179279089E-08
(PID.TID 0000.0001) %MON DYG_max                      =   3.1268664380261E+05
(PID.TID 0000.0001) %MON DYG_min                      =   3.1268664380261E+05
(PID.TID 0000.0001) %MON DYG_mean                     =   3.1268664380263E+05
(PID.TID 0000.0001) %MON DYG_sd                       =   2.4156179279089E-08
(PID.TID 0000.0001) %MON DYU_max                      =   3.1268664380261E+05
(PID.TID 0000.0001) %MON DYU_min                      =   3.1268664380261E+05
(PID.TID 0000.0001) %MON DYU_mean                     =   3.1268664380263E+05
(PID.TID 0000.0001) %MON DYU_sd                       =   2.4156179279089E-08
(PID.TID 0000.0001) %MON RA_max                       =   9.7733676797555E+10
(PID.TID 0000.0001) %MON RA_min                       =   2.3992270990190E+09
(PID.TID 0000.0001) %MON RA_mean                      =   6.2244185031957E+10
(PID.TID 0000.0001) %MON RA_sd                        =   3.0074496923945E+10
(PID.TID 0000.0001) %MON RAW_max                      =   9.7733676797555E+10
(PID.TID 0000.0001) %MON RAW_min                      =   2.3992270990190E+09
(PID.TID 0000.0001) %MON RAW_mean                     =   6.2244185031957E+10
(PID.TID 0000.0001) %MON RAW_sd                       =   3.0074496923945E+10
(PID.TID 0000.0001) %MON RAS_max                      =   9.7763121221868E+10
(PID.TID 0000.0001) %MON RAS_min                      =   0.0000000000000E+00
(PID.TID 0000.0001) %MON RAS_mean                     =   6.2225438247156E+10
(PID.TID 0000.0001) %MON RAS_sd                       =   3.0113265689233E+10
(PID.TID 0000.0001) %MON RAZ_max                      =   9.7763121221868E+10
(PID.TID 0000.0001) %MON RAZ_min                      =   0.0000000000000E+00
(PID.TID 0000.0001) %MON RAZ_mean                     =   6.2225438247156E+10
(PID.TID 0000.0001) %MON RAZ_sd                       =   3.0113265689233E+10
(PID.TID 0000.0001) %MON AngleCS_max                  =   1.0000000000000E+00
(PID.TID 0000.0001) %MON AngleCS_min                  =   1.0000000000000E+00
(PID.TID 0000.0001) %MON AngleCS_mean                 =   1.0000000000000E+00
(PID.TID 0000.0001) %MON AngleCS_sd                   =   0.0000000000000E+00
(PID.TID 0000.0001) %MON AngleSN_max                  =   0.0000000000000E+00
(PID.TID 0000.0001) %MON AngleSN_min                  =   0.0000000000000E+00
(PID.TID 0000.0001) %MON AngleSN_mean                 =   0.0000000000000E+00
(PID.TID 0000.0001) %MON AngleSN_sd                   =   0.0000000000000E+00
(PID.TID 0000.0001) 
(PID.TID 0000.0001) // =======================================================
(PID.TID 0000.0001) // Calendar configuration >>> START <<<
(PID.TID 0000.0001) // =======================================================
(PID.TID 0000.0001) 
(PID.TID 0000.0001) modelstart = /* Start time of the model integration [s] */
(PID.TID 0000.0001)                 0.000000000000000E+00
(PID.TID 0000.0001)     ;
(PID.TID 0000.0001) modelend  = /* End time of the model integration [s] */
(PID.TID 0000.0001)                 4.800000000000000E+03
(PID.TID 0000.0001)     ;
(PID.TID 0000.0001) modelStep = /* Time interval for a model forward step [s] */
(PID.TID 0000.0001)                 1.200000000000000E+03
(PID.TID 0000.0001)     ;
(PID.TID 0000.0001) usingGregorianCalendar= /* Calendar Type: Gregorian Calendar */
(PID.TID 0000.0001)                   T
(PID.TID 0000.0001)     ;
(PID.TID 0000.0001) usingJulianCalendar = /* Calendar Type: Julian Calendar */
(PID.TID 0000.0001)                   F
(PID.TID 0000.0001)     ;
(PID.TID 0000.0001) usingNoLeapYearCal  = /* Calendar Type: without Leap Year */
(PID.TID 0000.0001)                   F
(PID.TID 0000.0001)     ;
(PID.TID 0000.0001) usingModelCalendar  = /* Calendar Type: Model Calendar */
(PID.TID 0000.0001)                   F
(PID.TID 0000.0001)     ;
(PID.TID 0000.0001) modelStartDate YYYYMMDD = /* Model start date YYYY-MM-DD */
(PID.TID 0000.0001)                19920101
(PID.TID 0000.0001)     ;
(PID.TID 0000.0001)   modelStartDate HHMMSS = /* Model start date HH-MM-SS  */
(PID.TID 0000.0001)                       0
(PID.TID 0000.0001)     ;
(PID.TID 0000.0001) modelEndDate   YYYYMMDD = /* Model end date YYYY-MM-DD */
(PID.TID 0000.0001)                19920101
(PID.TID 0000.0001)     ;
(PID.TID 0000.0001)   modelEndDate   HHMMSS = /* Model end date HH-MM-SS  */
(PID.TID 0000.0001)                   12000
(PID.TID 0000.0001)     ;
(PID.TID 0000.0001) intyears = /* Number of calendar years affected by the integration */
(PID.TID 0000.0001)                       1
(PID.TID 0000.0001)     ;
(PID.TID 0000.0001) intmonths= /* Number of calendar months affected by the integration */
(PID.TID 0000.0001)                       1
(PID.TID 0000.0001)     ;
(PID.TID 0000.0001) intdays = /* Number of calendar days affected by the integration */
(PID.TID 0000.0001)                       1
(PID.TID 0000.0001)     ;
(PID.TID 0000.0001) modelIter0 = /* Base timestep number  */
(PID.TID 0000.0001)                       0
(PID.TID 0000.0001)     ;
(PID.TID 0000.0001) modelIterEnd = /* Final timestep number  */
(PID.TID 0000.0001)                       4
(PID.TID 0000.0001)     ;
(PID.TID 0000.0001) modelIntSteps= /* Number of model timesteps  */
(PID.TID 0000.0001)                       4
(PID.TID 0000.0001)     ;
(PID.TID 0000.0001) 
(PID.TID 0000.0001) // =======================================================
(PID.TID 0000.0001) // Calendar configuration  >>> END <<<
(PID.TID 0000.0001) // =======================================================
(PID.TID 0000.0001) 
(PID.TID 0000.0001) GAD_INIT_FIXED: GAD_OlMinSize=  2  0  1
(PID.TID 0000.0001) 
(PID.TID 0000.0001) // ===================================
(PID.TID 0000.0001) // GAD parameters :
(PID.TID 0000.0001) // ===================================
(PID.TID 0000.0001) tempAdvScheme =   /* Temp. Horiz.Advection scheme selector */
(PID.TID 0000.0001)                      30
(PID.TID 0000.0001)     ;
(PID.TID 0000.0001) tempVertAdvScheme =   /* Temp. Vert. Advection scheme selector */
(PID.TID 0000.0001)                       3
(PID.TID 0000.0001)     ;
(PID.TID 0000.0001) tempMultiDimAdvec =   /* use Muti-Dim Advec method for Temp */
(PID.TID 0000.0001)                   T
(PID.TID 0000.0001)     ;
(PID.TID 0000.0001) tempSOM_Advection = /* use 2nd Order Moment Advection for Temp */
(PID.TID 0000.0001)                   F
(PID.TID 0000.0001)     ;
(PID.TID 0000.0001) AdamsBashforthGt = /* apply Adams-Bashforth extrapolation on Gt */
(PID.TID 0000.0001)                   F
(PID.TID 0000.0001)     ;
(PID.TID 0000.0001) AdamsBashforth_T = /* apply Adams-Bashforth extrapolation on Temp */
(PID.TID 0000.0001)                   F
(PID.TID 0000.0001)     ;
(PID.TID 0000.0001) saltAdvScheme =   /* Salt. Horiz.advection scheme selector */
(PID.TID 0000.0001)                      30
(PID.TID 0000.0001)     ;
(PID.TID 0000.0001) saltVertAdvScheme =   /* Salt. Vert. Advection scheme selector */
(PID.TID 0000.0001)                       3
(PID.TID 0000.0001)     ;
(PID.TID 0000.0001) saltMultiDimAdvec =   /* use Muti-Dim Advec method for Salt */
(PID.TID 0000.0001)                   T
(PID.TID 0000.0001)     ;
(PID.TID 0000.0001) saltSOM_Advection = /* use 2nd Order Moment Advection for Salt */
(PID.TID 0000.0001)                   F
(PID.TID 0000.0001)     ;
(PID.TID 0000.0001) AdamsBashforthGs = /* apply Adams-Bashforth extrapolation on Gs */
(PID.TID 0000.0001)                   F
(PID.TID 0000.0001)     ;
(PID.TID 0000.0001) AdamsBashforth_S = /* apply Adams-Bashforth extrapolation on Salt */
(PID.TID 0000.0001)                   F
(PID.TID 0000.0001)     ;
(PID.TID 0000.0001) // ===================================
(PID.TID 0000.0001) 
(PID.TID 0000.0001) // =======================================================
(PID.TID 0000.0001) // External forcing (EXF) configuration >>> START <<<
(PID.TID 0000.0001) // =======================================================
(PID.TID 0000.0001) 
(PID.TID 0000.0001)  EXF general parameters:
(PID.TID 0000.0001) 
(PID.TID 0000.0001) exf_iprec = /* exf file precision */
(PID.TID 0000.0001)                      32
(PID.TID 0000.0001)     ;
(PID.TID 0000.0001) useExfYearlyFields = /* add extension _YEAR to input file names */
(PID.TID 0000.0001)                   T
(PID.TID 0000.0001)     ;
(PID.TID 0000.0001) twoDigitYear = /* use 2-digit year extension */
(PID.TID 0000.0001)                   F
(PID.TID 0000.0001)     ;
(PID.TID 0000.0001) useExfCheckRange = /* check for fields range */
(PID.TID 0000.0001)                   F
(PID.TID 0000.0001)     ;
(PID.TID 0000.0001) exf_output_interp = /* output directly interpolation result */
(PID.TID 0000.0001)                   F
(PID.TID 0000.0001)     ;
(PID.TID 0000.0001) diags_opOceWeighted = /* weight flux diags by open-ocean fraction */
(PID.TID 0000.0001)                   T
(PID.TID 0000.0001)     ;
(PID.TID 0000.0001) exf_debugLev = /* select EXF-debug printing level */
(PID.TID 0000.0001)                       1
(PID.TID 0000.0001)     ;
(PID.TID 0000.0001) exf_monFreq  = /* EXF monitor frequency [ s ] */
(PID.TID 0000.0001)                 1.000000000000000E+00
(PID.TID 0000.0001)     ;
(PID.TID 0000.0001) repeatPeriod = /* period for cycling forcing dataset [ s ] */
(PID.TID 0000.0001)                 0.000000000000000E+00
(PID.TID 0000.0001)     ;
(PID.TID 0000.0001) climTempFreeze= /* Minimum climatological temperature [deg.C] */
(PID.TID 0000.0001)                -1.900000000000000E+00
(PID.TID 0000.0001)     ;
(PID.TID 0000.0001) windStressMax = /* Maximum absolute windstress [ Pa ] */
(PID.TID 0000.0001)                 2.000000000000000E+00
(PID.TID 0000.0001)     ;
(PID.TID 0000.0001) stressIsOnCgrid = /* set u,v_stress on Arakawa C-grid */
(PID.TID 0000.0001)                   F
(PID.TID 0000.0001)     ;
(PID.TID 0000.0001) rotateStressOnAgrid = /* rotate u,v_stress on Arakawa A-grid */
(PID.TID 0000.0001)                   F
(PID.TID 0000.0001)     ;
(PID.TID 0000.0001) cen2kel = /* conversion of deg. Centigrade to Kelvin [K] */
(PID.TID 0000.0001)                 2.731500000000000E+02
(PID.TID 0000.0001)     ;
(PID.TID 0000.0001) gravity_mks= /* gravitational acceleration [m/s^2] */
(PID.TID 0000.0001)                 9.810000000000000E+00
(PID.TID 0000.0001)     ;
(PID.TID 0000.0001) atmrho =  /* mean atmospheric density [kg/m^3] */
(PID.TID 0000.0001)                 1.200000000000000E+00
(PID.TID 0000.0001)     ;
(PID.TID 0000.0001) atmcp =  /* mean atmospheric specific heat [J/kg/K] */
(PID.TID 0000.0001)                 1.005000000000000E+03
(PID.TID 0000.0001)     ;
(PID.TID 0000.0001) flamb =  /* latent heat of evaporation [J/kg] */
(PID.TID 0000.0001)                 2.500000000000000E+06
(PID.TID 0000.0001)     ;
(PID.TID 0000.0001) flami =  /* latent heat of pure-ice melting [J/kg] */
(PID.TID 0000.0001)                 3.340000000000000E+05
(PID.TID 0000.0001)     ;
(PID.TID 0000.0001) cvapor_fac = /* const. for Saturation calculation [?] */
(PID.TID 0000.0001)                 6.403800000000000E+05
(PID.TID 0000.0001)     ;
(PID.TID 0000.0001) cvapor_exp = /* const. for Saturation calculation [?] */
(PID.TID 0000.0001)                 5.107400000000000E+03
(PID.TID 0000.0001)     ;
(PID.TID 0000.0001) cvapor_fac_ice= /* const. for Saturation calculation [?] */
(PID.TID 0000.0001)                 1.163780000000000E+07
(PID.TID 0000.0001)     ;
(PID.TID 0000.0001) cvapor_exp_ice= /* const. for Saturation calculation [?] */
(PID.TID 0000.0001)                 5.897800000000000E+03
(PID.TID 0000.0001)     ;
(PID.TID 0000.0001) humid_fac = /* humidity coef. in virtual temp. [(kg/kg)^-1] */
(PID.TID 0000.0001)                 6.060000000000000E-01
(PID.TID 0000.0001)     ;
(PID.TID 0000.0001) gamma_blk = /* adiabatic lapse rate [?] */
(PID.TID 0000.0001)                 1.000000000000000E-02
(PID.TID 0000.0001)     ;
(PID.TID 0000.0001) saltsat = /* reduction of Qsat over salty water [-] */
(PID.TID 0000.0001)                 9.800000000000000E-01
(PID.TID 0000.0001)     ;
(PID.TID 0000.0001) noNegativeEvap = /* prevent negative Evaporation */
(PID.TID 0000.0001)                   F
(PID.TID 0000.0001)     ;
(PID.TID 0000.0001) sstExtrapol = /* extrapolation coeff from lev. 1 & 2 to surf [-] */
(PID.TID 0000.0001)                 0.000000000000000E+00
(PID.TID 0000.0001)     ;
(PID.TID 0000.0001) cDrag_1 = /* coef used in drag calculation [?] */
(PID.TID 0000.0001)                 2.700000000000000E-03
(PID.TID 0000.0001)     ;
(PID.TID 0000.0001) cDrag_2 = /* coef used in drag calculation [?] */
(PID.TID 0000.0001)                 1.420000000000000E-04
(PID.TID 0000.0001)     ;
(PID.TID 0000.0001) cDrag_3 = /* coef used in drag calculation [?] */
(PID.TID 0000.0001)                 7.640000000000000E-05
(PID.TID 0000.0001)     ;
(PID.TID 0000.0001) cStanton_1 = /* coef used in Stanton number calculation [?] */
(PID.TID 0000.0001)                 3.270000000000000E-02
(PID.TID 0000.0001)     ;
(PID.TID 0000.0001) cStanton_2 = /* coef used in Stanton number calculation [?] */
(PID.TID 0000.0001)                 1.800000000000000E-02
(PID.TID 0000.0001)     ;
(PID.TID 0000.0001) cDalton = /* coef used in Dalton number calculation [?] */
(PID.TID 0000.0001)                 3.460000000000000E-02
(PID.TID 0000.0001)     ;
(PID.TID 0000.0001) exf_scal_BulkCdn= /* Drag coefficient scaling factor [-] */
(PID.TID 0000.0001)                 1.000000000000000E+00
(PID.TID 0000.0001)     ;
(PID.TID 0000.0001) zolmin = /* minimum stability parameter [?] */
(PID.TID 0000.0001)                -1.000000000000000E+02
(PID.TID 0000.0001)     ;
(PID.TID 0000.0001) psim_fac = /* coef used in turbulent fluxes calculation [-] */
(PID.TID 0000.0001)                 5.000000000000000E+00
(PID.TID 0000.0001)     ;
(PID.TID 0000.0001) zref =  /* reference height [ m ] */
(PID.TID 0000.0001)                 1.000000000000000E+01
(PID.TID 0000.0001)     ;
(PID.TID 0000.0001) hu =  /* height of mean wind [ m ] */
(PID.TID 0000.0001)                 1.000000000000000E+01
(PID.TID 0000.0001)     ;
(PID.TID 0000.0001) ht =  /* height of mean temperature [ m ] */
(PID.TID 0000.0001)                 2.000000000000000E+00
(PID.TID 0000.0001)     ;
(PID.TID 0000.0001) hq =  /* height of mean spec.humidity [ m ] */
(PID.TID 0000.0001)                 2.000000000000000E+00
(PID.TID 0000.0001)     ;
(PID.TID 0000.0001) uMin = /* minimum wind speed [m/s] */
(PID.TID 0000.0001)                 5.000000000000000E-01
(PID.TID 0000.0001)     ;
(PID.TID 0000.0001) useStabilityFct_overIce= /* transfert Coeffs over sea-ice depend on stability */
(PID.TID 0000.0001)                   F
(PID.TID 0000.0001)     ;
(PID.TID 0000.0001) exf_iceCd = /* drag coefficient over sea-ice (fixed) [-] */
(PID.TID 0000.0001)                 1.630000000000000E-03
(PID.TID 0000.0001)     ;
(PID.TID 0000.0001) exf_iceCe = /* transfert coeff. over sea-ice, for Evap (fixed) [-] */
(PID.TID 0000.0001)                 1.630000000000000E-03
(PID.TID 0000.0001)     ;
(PID.TID 0000.0001) exf_iceCh = /* transfert coeff. over sea-ice, Sens.Heat.(fixed)[-] */
(PID.TID 0000.0001)                 1.630000000000000E-03
(PID.TID 0000.0001)     ;
(PID.TID 0000.0001) exf_albedo =  /* Sea-water albedo [-] */
(PID.TID 0000.0001)                 1.000000000000000E-01
(PID.TID 0000.0001)     ;
(PID.TID 0000.0001) useExfZenAlbedo = /* Sea-water albedo varies with zenith angle */
(PID.TID 0000.0001)                   T
(PID.TID 0000.0001)     ;
(PID.TID 0000.0001) select_ZenAlbedo = /* Sea-water albedo computation method */
(PID.TID 0000.0001)                       1
(PID.TID 0000.0001)     ;
(PID.TID 0000.0001) useExfZenIncoming = /* compute incoming solar radiation */
(PID.TID 0000.0001)                   T
(PID.TID 0000.0001)     ;
(PID.TID 0000.0001) ocean_emissivity = /* longwave ocean-surface emissivity [-] */
(PID.TID 0000.0001)                 9.700000000000000E-01
(PID.TID 0000.0001)     ;
(PID.TID 0000.0001) ice_emissivity = /* longwave seaice emissivity [-] */
(PID.TID 0000.0001)                 9.500000000000000E-01
(PID.TID 0000.0001)     ;
(PID.TID 0000.0001) snow_emissivity = /* longwave snow  emissivity [-] */
(PID.TID 0000.0001)                 9.500000000000000E-01
(PID.TID 0000.0001)     ;
(PID.TID 0000.0001) 
(PID.TID 0000.0001)  EXF main CPP flags:
(PID.TID 0000.0001) 
(PID.TID 0000.0001) // USE_EXF_INTERPOLATION:              defined
(PID.TID 0000.0001) // ALLOW_ATM_TEMP:                     defined
(PID.TID 0000.0001) // ALLOW_ATM_WIND (useAtmWind):        defined
(PID.TID 0000.0001) // ALLOW_DOWNWARD_RADIATION:           defined
(PID.TID 0000.0001) // ALLOW_BULKFORMULAE:                 defined
(PID.TID 0000.0001) 
(PID.TID 0000.0001)    Zonal wind forcing period is                        -12.
(PID.TID 0000.0001)    Zonal wind forcing is read from file:
(PID.TID 0000.0001)    >> EIG_u10m_2000 <<
(PID.TID 0000.0001)    interpolate "uwind" (method= 12 ):
(PID.TID 0000.0001)    lon0=-178.50000, nlon=   120, lon_inc= 3.0000000
(PID.TID 0000.0001)    lat0= -88.50000, nlat=    60, lat_inc= 3.0000000
(PID.TID 0000.0001) 
(PID.TID 0000.0001)    Meridional wind forcing period is                   -12.
(PID.TID 0000.0001)    Meridional wind forcing is read from file:
(PID.TID 0000.0001)    >> EIG_v10m_2000 <<
(PID.TID 0000.0001)    interpolate "vwind" (method= 22 ):
(PID.TID 0000.0001)    lon0=-178.50000, nlon=   120, lon_inc= 3.0000000
(PID.TID 0000.0001)    lat0= -88.50000, nlat=    60, lat_inc= 3.0000000
(PID.TID 0000.0001)     Interp. U & V comp. together: uvInterp_wind =    T
(PID.TID 0000.0001) 
(PID.TID 0000.0001)    Atmospheric temperature period is                   -12.
(PID.TID 0000.0001)    Atmospheric temperature is read from file:
(PID.TID 0000.0001)    >> EIG_tmp2m_degC_plus_ECCO_v4r1_ctrl_2000 <<
(PID.TID 0000.0001)    interpolate "atemp" (method=  1 ):
(PID.TID 0000.0001)    lon0=-178.50000, nlon=   120, lon_inc= 3.0000000
(PID.TID 0000.0001)    lat0= -88.50000, nlat=    60, lat_inc= 3.0000000
(PID.TID 0000.0001) 
(PID.TID 0000.0001)    Atmospheric specific humidity period is             -12.
(PID.TID 0000.0001)    Atmospheric specific humidity is read from file:
(PID.TID 0000.0001)    >> EIG_spfh2m_plus_ECCO_v4r1_ctrl_2000 <<
(PID.TID 0000.0001)    interpolate "aqh" (method=  1 ):
(PID.TID 0000.0001)    lon0=-178.50000, nlon=   120, lon_inc= 3.0000000
(PID.TID 0000.0001)    lat0= -88.50000, nlat=    60, lat_inc= 3.0000000
(PID.TID 0000.0001) 
(PID.TID 0000.0001) // ALLOW_READ_TURBFLUXES:          NOT defined
(PID.TID 0000.0001) // EXF_READ_EVAP:                  NOT defined
(PID.TID 0000.0001) 
(PID.TID 0000.0001)    Precipitation data period is                        -12.
(PID.TID 0000.0001)    Precipitation data is read from file:
(PID.TID 0000.0001)    >> EIG_rain_plus_ECCO_v4r1_ctrl_2000 <<
(PID.TID 0000.0001)    interpolate "precip" (method=  1 ):
(PID.TID 0000.0001)    lon0=-178.50000, nlon=   120, lon_inc= 3.0000000
(PID.TID 0000.0001)    lat0= -88.50000, nlat=    60, lat_inc= 3.0000000
(PID.TID 0000.0001) 
(PID.TID 0000.0001) // ALLOW_RUNOFF:                       defined
(PID.TID 0000.0001)    Runoff data period is                               -12.
(PID.TID 0000.0001)    Runoff data is read from file:
(PID.TID 0000.0001)    >> runoff-2d-Fekete-1deg-mon-V4-SMOOTH.bin <<
(PID.TID 0000.0001)    interpolate "runoff" (method=  1 ):
(PID.TID 0000.0001)    lon0=-178.50000, nlon=   120, lon_inc= 3.0000000
(PID.TID 0000.0001)    lat0= -88.50000, nlat=    60, lat_inc= 3.0000000
(PID.TID 0000.0001) 
(PID.TID 0000.0001) // ALLOW_RUNOFTEMP:                NOT defined
(PID.TID 0000.0001) // ALLOW_SALTFLX:                  NOT defined
(PID.TID 0000.0001) 
(PID.TID 0000.0001)    Downward shortwave flux period is                   -12.
(PID.TID 0000.0001)    Downward shortwave flux is read from file:
(PID.TID 0000.0001)    >> EIG_dsw_plus_ECCO_v4r1_ctrl_2000 <<
(PID.TID 0000.0001)    interpolate "swdown" (method=  1 ):
(PID.TID 0000.0001)    lon0=-178.50000, nlon=   120, lon_inc= 3.0000000
(PID.TID 0000.0001)    lat0= -88.50000, nlat=    60, lat_inc= 3.0000000
(PID.TID 0000.0001) 
(PID.TID 0000.0001)    Downward longwave flux period is                    -12.
(PID.TID 0000.0001)    Downward longwave flux is read from file:
(PID.TID 0000.0001)    >> EIG_dlw_plus_ECCO_v4r1_ctrl_2000 <<
(PID.TID 0000.0001)    interpolate "lwdown" (method=  1 ):
(PID.TID 0000.0001)    lon0=-178.50000, nlon=   120, lon_inc= 3.0000000
(PID.TID 0000.0001)    lat0= -88.50000, nlat=    60, lat_inc= 3.0000000
(PID.TID 0000.0001) 
(PID.TID 0000.0001) // =======================================================
(PID.TID 0000.0001) // External forcing (EXF) climatology configuration :
(PID.TID 0000.0001) // =======================================================
(PID.TID 0000.0001) 
(PID.TID 0000.0001) // ALLOW_CLIMSST_RELAXATION:           defined
(PID.TID 0000.0001)    climsst relaxation is NOT used
(PID.TID 0000.0001) 
(PID.TID 0000.0001) // ALLOW_CLIMSSS_RELAXATION:           defined
(PID.TID 0000.0001)    climsss relaxation is NOT used
(PID.TID 0000.0001) 
(PID.TID 0000.0001) // =======================================================
(PID.TID 0000.0001) // External forcing (EXF) configuration  >>> END <<<
(PID.TID 0000.0001) // =======================================================
(PID.TID 0000.0001) 
(PID.TID 0000.0001) DARWIN_RANDOM_INIT: port_rand               56   0.3052905000000000
 nsource           1           3
 nsource           2           3
 nsource           3           3
 nsource           4           2
 nsource           5           1
(PID.TID 0000.0001)  DARWIN_INIT_FIXED: opening data.traits
(PID.TID 0000.0001)  OPEN_COPY_DATA_FILE: opening file data.traits
(PID.TID 0000.0001) // =======================================================
(PID.TID 0000.0001) // Parameter file "data.traits"
(PID.TID 0000.0001) // =======================================================
(PID.TID 0000.0001) > &DARWIN_TRAITS
(PID.TID 0000.0001) > hasSi   =   1, 4*0,
(PID.TID 0000.0001) > hasPIC  =   0, 1, 1, 0, 0,
(PID.TID 0000.0001) > DIAZO   = 5*0,
(PID.TID 0000.0001) > useNH4  = 3*1, 1, 1,
(PID.TID 0000.0001) > useNO2  = 3*1, 0, 1,
(PID.TID 0000.0001) > useNO3  = 3*1, 0, 0,
(PID.TID 0000.0001) > tempmort = 7*0,
(PID.TID 0000.0001) > EXPORTFRACMORT  = 2*0.3, 3*0.05, 0.1, 0.5,
(PID.TID 0000.0001) > R_PICPOC =  0.0, 2*4.19E-2, 4*0.0,
(PID.TID 0000.0001) > PCMAX   = 2*2.738777584967835E-5, 3*1.673037593823948E-5,
(PID.TID 0000.0001) > GRAZEMAX(6:7) = 2*7.233796296296297E-6,
(PID.TID 0000.0001) > KGRAZESAT(6:7) = 2*10.2,
(PID.TID 0000.0001) > PALAT(:,6) = 0.169146, 0.18, 3*1.0,
(PID.TID 0000.0001) > PALAT(:,7) = 0.8456, 0.9, 3*0.2,
(PID.TID 0000.0001) > ASSEFF(:,6) = 2*0.2, 3*0.5,
(PID.TID 0000.0001) > ASSEFF(:,7) = 2*0.5, 3*0.7,
(PID.TID 0000.0001) > EXPORTFRACPREYPRED(:,6) = 5*0.3,
(PID.TID 0000.0001) > EXPORTFRACPREYPRED(:,7) = 5*0.6,
(PID.TID 0000.0001) > /
(PID.TID 0000.0001) 
(PID.TID 0000.0001)  ===================================
(PID.TID 0000.0001) // =======================================================
(PID.TID 0000.0001) // Seaice configuration (SEAICE_PARM01) >>> START <<<
(PID.TID 0000.0001) // =======================================================
(PID.TID 0000.0001) 
(PID.TID 0000.0001)    Seaice time stepping configuration   > START <
(PID.TID 0000.0001)    ----------------------------------------------
(PID.TID 0000.0001) SEAICE_deltaTtherm= /* thermodynamic timestep */
(PID.TID 0000.0001)                 1.200000000000000E+03
(PID.TID 0000.0001)     ;
(PID.TID 0000.0001) SEAICE_deltaTdyn  = /* dynamic timestep */
(PID.TID 0000.0001)                 1.200000000000000E+03
(PID.TID 0000.0001)     ;
(PID.TID 0000.0001) SEAICE_deltaTevp  = /* EVP timestep */
(PID.TID 0000.0001)                 6.000000000000000E+01
(PID.TID 0000.0001)     ;
(PID.TID 0000.0001) SEAICEuseBDF2  = /* use backw. differencing for mom. eq. */
(PID.TID 0000.0001)                   F
(PID.TID 0000.0001)     ;
(PID.TID 0000.0001) SEAICEupdateOceanStress= /* update Ocean surf. stress */
(PID.TID 0000.0001)                   T
(PID.TID 0000.0001)     ;
(PID.TID 0000.0001) SEAICErestoreUnderIce  = /* restore T and S under ice */
(PID.TID 0000.0001)                   T
(PID.TID 0000.0001)     ;
(PID.TID 0000.0001) 
(PID.TID 0000.0001)    Seaice dynamics configuration   > START <
(PID.TID 0000.0001)    ------------------------------------------
(PID.TID 0000.0001) SEAICEuseDYNAMICS = /* use dynamics */
(PID.TID 0000.0001)                   T
(PID.TID 0000.0001)     ;
(PID.TID 0000.0001) model grid type   = /* type of sea ice model grid */
(PID.TID 0000.0001)               'C-GRID'
(PID.TID 0000.0001)     ;
(PID.TID 0000.0001) SEAICEuseStrImpCpl = /* use strongly implicit coupling */
(PID.TID 0000.0001)                   F
(PID.TID 0000.0001)     ;
(PID.TID 0000.0001) SEAICEusePicardAsPrecon = /* Picard as preconditioner */
(PID.TID 0000.0001)                   F
(PID.TID 0000.0001)     ;
(PID.TID 0000.0001) SEAICEuseLSR      = /* use default Picard-LSR solver */
(PID.TID 0000.0001)                   F
(PID.TID 0000.0001)     ;
(PID.TID 0000.0001) SEAICEuseKrylov   = /* use Picard-Krylov solver */
(PID.TID 0000.0001)                   F
(PID.TID 0000.0001)     ;
(PID.TID 0000.0001) SEAICEuseEVP      = /* use EVP solver rather than LSR */
(PID.TID 0000.0001)                   T
(PID.TID 0000.0001)     ;
(PID.TID 0000.0001) SEAICEuseJFNK     = /* use JFNK solver */
(PID.TID 0000.0001)                   F
(PID.TID 0000.0001)     ;
(PID.TID 0000.0001) SEAICEuseFREEDRIFT = /* use free drift solution */
(PID.TID 0000.0001)                   F
(PID.TID 0000.0001)     ;
(PID.TID 0000.0001) OCEAN_drag        = /* air-ocean drag coefficient */
(PID.TID 0000.0001)                 1.000000000000000E-03
(PID.TID 0000.0001)     ;
(PID.TID 0000.0001) SEAICE_drag       = /* air-ice drag coefficient */
(PID.TID 0000.0001)                 2.000000000000000E-03
(PID.TID 0000.0001)     ;
(PID.TID 0000.0001) SEAICE_drag_south      = /* Southern Ocean SEAICE_drag */
(PID.TID 0000.0001)                 2.000000000000000E-03
(PID.TID 0000.0001)     ;
(PID.TID 0000.0001) SEAICE_waterDrag  = /* water-ice drag */
(PID.TID 0000.0001)                 5.344995140913508E-03
(PID.TID 0000.0001)     ;
(PID.TID 0000.0001) SEAICE_waterDrag_south = /* Southern Ocean waterDrag */
(PID.TID 0000.0001)                 5.344995140913508E-03
(PID.TID 0000.0001)     ;
(PID.TID 0000.0001) SEAICEuseTilt     = /* include surface tilt in dyna. */
(PID.TID 0000.0001)                   F
(PID.TID 0000.0001)     ;
(PID.TID 0000.0001) SEAICEuseTEM      = /* use truncated ellipse rheology */
(PID.TID 0000.0001)                   F
(PID.TID 0000.0001)     ;
(PID.TID 0000.0001) SEAICE_strength   = /* sea-ice strength Pstar */
(PID.TID 0000.0001)                 2.750000000000000E+04
(PID.TID 0000.0001)     ;
(PID.TID 0000.0001) SEAICE_cStar      = /* sea-ice strength parameter cStar */
(PID.TID 0000.0001)                 2.000000000000000E+01
(PID.TID 0000.0001)     ;
(PID.TID 0000.0001) SEAICEpressReplFac= /* press. replacement method factor */
(PID.TID 0000.0001)                 1.000000000000000E+00
(PID.TID 0000.0001)     ;
(PID.TID 0000.0001) SEAICE_tensilFac  = /* sea-ice tensile strength factor */
(PID.TID 0000.0001)                 0.000000000000000E+00
(PID.TID 0000.0001)     ;
(PID.TID 0000.0001) SEAICE_tensilDepth= /* crit. depth for tensile strength */
(PID.TID 0000.0001)                 0.000000000000000E+00
(PID.TID 0000.0001)     ;
(PID.TID 0000.0001) SEAICEpresH0   = /* sea-ice strength Heff threshold */
(PID.TID 0000.0001)                 2.000000000000000E+00
(PID.TID 0000.0001)     ;
(PID.TID 0000.0001) SEAICEpresPow0 = /* exponent for Heff<SEAICEpresH0 */
(PID.TID 0000.0001)                       1
(PID.TID 0000.0001)     ;
(PID.TID 0000.0001) SEAICEpresPow1 = /* exponent for Heff>SEAICEpresH0 */
(PID.TID 0000.0001)                       3
(PID.TID 0000.0001)     ;
(PID.TID 0000.0001) SEAICEetaZmethod = /* method computing eta at Z-point */
(PID.TID 0000.0001)                       0
(PID.TID 0000.0001)     ;
(PID.TID 0000.0001) SEAICE_zetaMin    = /* lower bound for viscosity */
(PID.TID 0000.0001)                 0.000000000000000E+00
(PID.TID 0000.0001)     ;
(PID.TID 0000.0001) SEAICE_eccen    = /* elliptical yield curve eccent */
(PID.TID 0000.0001)                 2.000000000000000E+00
(PID.TID 0000.0001)     ;
(PID.TID 0000.0001) SEAICEstressFactor    = /* wind stress scaling factor */
(PID.TID 0000.0001)                 1.000000000000000E+00
(PID.TID 0000.0001)     ;
(PID.TID 0000.0001) SEAICE_airTurnAngle    = /* air-ice turning angle */
(PID.TID 0000.0001)                 0.000000000000000E+00
(PID.TID 0000.0001)     ;
(PID.TID 0000.0001) SEAICE_waterTurnAngle  = /* ice-water turning angle */
(PID.TID 0000.0001)                 0.000000000000000E+00
(PID.TID 0000.0001)     ;
(PID.TID 0000.0001) SEAICEuseMetricTerms = /* use metric terms */
(PID.TID 0000.0001)                   T
(PID.TID 0000.0001)     ;
(PID.TID 0000.0001) SEAICE_no_slip    = /* no slip boundary conditions */
(PID.TID 0000.0001)                   F
(PID.TID 0000.0001)     ;
(PID.TID 0000.0001) SEAICE_2ndOrderBC = /* 2nd order no slip boundary conditions */
(PID.TID 0000.0001)                   F
(PID.TID 0000.0001)     ;
(PID.TID 0000.0001) SEAICE_clipVeloctities = /* impose max. vels. */
(PID.TID 0000.0001)                   T
(PID.TID 0000.0001)     ;
(PID.TID 0000.0001) useHB87stressCoupling  = /* altern. ice-ocean stress */
(PID.TID 0000.0001)                   F
(PID.TID 0000.0001)     ;
(PID.TID 0000.0001) SEAICEscaleSurfStress  = /* scale atm. and ocean-surface stress with AREA */
(PID.TID 0000.0001)                   F
(PID.TID 0000.0001)     ;
(PID.TID 0000.0001) SEAICE_maskRHS    = /* mask RHS of solver */
(PID.TID 0000.0001)                   F
(PID.TID 0000.0001)     ;
(PID.TID 0000.0001) SEAICEaddSnowMass = /* add snow mass to seaiceMassC/U/V */
(PID.TID 0000.0001)                   F
(PID.TID 0000.0001)     ;
(PID.TID 0000.0001) SEAICE_elasticParm= /* EVP elastic parameter */
(PID.TID 0000.0001)                 3.333333333333333E-01
(PID.TID 0000.0001)     ;
(PID.TID 0000.0001) SEAICE_evpTauRelax= /* EVP relaxation timescale */
(PID.TID 0000.0001)                 4.000000000000000E+02
(PID.TID 0000.0001)     ;
(PID.TID 0000.0001) SEAICE_evpDampC   = /* EVP damping parameter */
(PID.TID 0000.0001)                -1.000000000000000E+00
(PID.TID 0000.0001)     ;
(PID.TID 0000.0001) SEAICEuseEVPstar  = /* use EVP* solver */
(PID.TID 0000.0001)                   F
(PID.TID 0000.0001)     ;
(PID.TID 0000.0001) SEAICEuseEVPrev   = /* use "revisited EVP" solver */
(PID.TID 0000.0001)                   F
(PID.TID 0000.0001)     ;
(PID.TID 0000.0001) SEAICE_evpAlpha   = /* EVP* parameter*/
(PID.TID 0000.0001)                 1.333333333333333E+01
(PID.TID 0000.0001)     ;
(PID.TID 0000.0001) SEAICE_evpBeta    = /* EVP*  parameter */
(PID.TID 0000.0001)                 2.000000000000000E+01
(PID.TID 0000.0001)     ;
(PID.TID 0000.0001) SEAICEaEVPcoeff   = /* adaptive EVP parameter*/
(PID.TID 0000.0001)                 1.234567000000000E+05
(PID.TID 0000.0001)     ;
(PID.TID 0000.0001) SEAICEaEVPcStar   = /* adaptive EVP parameter*/
(PID.TID 0000.0001)                 1.234567000000000E+05
(PID.TID 0000.0001)     ;
(PID.TID 0000.0001) SEAICEaEVPalphaMin= /* adaptive EVP parameter*/
(PID.TID 0000.0001)                 1.234567000000000E+05
(PID.TID 0000.0001)     ;
(PID.TID 0000.0001) SEAICEnEVPstarSteps = /* num. of EVP* steps */
(PID.TID 0000.0001)               123456789
(PID.TID 0000.0001)     ;
(PID.TID 0000.0001) SEAICEuseEVPpickup= /* start EVP solver with EVP pickup*/
(PID.TID 0000.0001)                   T
(PID.TID 0000.0001)     ;
(PID.TID 0000.0001) 
(PID.TID 0000.0001)    Seaice advection diffusion config,   > START <
(PID.TID 0000.0001)    -----------------------------------------------
(PID.TID 0000.0001) SEAICEmomAdvection = /* advect sea ice momentum */
(PID.TID 0000.0001)                   F
(PID.TID 0000.0001)     ;
(PID.TID 0000.0001) SEAICEadvHeff = /* advect effective ice thickness */
(PID.TID 0000.0001)                   T
(PID.TID 0000.0001)     ;
(PID.TID 0000.0001) SEAICEadvArea = /* advect fractional ice area */
(PID.TID 0000.0001)                   T
(PID.TID 0000.0001)     ;
(PID.TID 0000.0001) SEAICEadvSnow = /* advect snow layer together with ice */
(PID.TID 0000.0001)                   T
(PID.TID 0000.0001)     ;
(PID.TID 0000.0001) SEAICEadvScheme   = /* advection scheme for ice */
(PID.TID 0000.0001)                      30
(PID.TID 0000.0001)     ;
(PID.TID 0000.0001) SEAICEadvSchArea   = /* advection scheme for area */
(PID.TID 0000.0001)                      30
(PID.TID 0000.0001)     ;
(PID.TID 0000.0001) SEAICEadvSchHeff   = /* advection scheme for thickness */
(PID.TID 0000.0001)                      30
(PID.TID 0000.0001)     ;
(PID.TID 0000.0001) SEAICEadvSchSnow   = /* advection scheme for snow */
(PID.TID 0000.0001)                      30
(PID.TID 0000.0001)     ;
(PID.TID 0000.0001) SEAICEdiffKhArea   = /* diffusivity (m^2/s) for area */
(PID.TID 0000.0001)                 4.000000000000000E+02
(PID.TID 0000.0001)     ;
(PID.TID 0000.0001) SEAICEdiffKhHeff   = /* diffusivity (m^2/s) for heff */
(PID.TID 0000.0001)                 4.000000000000000E+02
(PID.TID 0000.0001)     ;
(PID.TID 0000.0001) SEAICEdiffKhSnow   = /* diffusivity (m^2/s) for snow */
(PID.TID 0000.0001)                 4.000000000000000E+02
(PID.TID 0000.0001)     ;
(PID.TID 0000.0001) DIFF1             = /* parameter used in advect.F [m/s] */
(PID.TID 0000.0001)                 0.000000000000000E+00
(PID.TID 0000.0001)     ;
(PID.TID 0000.0001) 
(PID.TID 0000.0001)    Seaice thermodynamics configuration   > START <
(PID.TID 0000.0001)    -----------------------------------------------
(PID.TID 0000.0001) SEAICE_rhoIce     = /* density of sea ice (kg/m3) */
(PID.TID 0000.0001)                 9.100000000000000E+02
(PID.TID 0000.0001)     ;
(PID.TID 0000.0001) SEAICE_rhoSnow    = /* density of snow (kg/m3) */
(PID.TID 0000.0001)                 3.300000000000000E+02
(PID.TID 0000.0001)     ;
(PID.TID 0000.0001) SEAICE_rhoAir     = /* density of air (kg/m3) */
(PID.TID 0000.0001)                 1.200000000000000E+00
(PID.TID 0000.0001)     ;
(PID.TID 0000.0001) usePW79thermodynamics  = /* default 0-layer TD */
(PID.TID 0000.0001)                   T
(PID.TID 0000.0001)     ;
(PID.TID 0000.0001) SEAICE_lhEvap     = /* latent heat of evaporation */
(PID.TID 0000.0001)                 2.500000000000000E+06
(PID.TID 0000.0001)     ;
(PID.TID 0000.0001) SEAICE_lhFusion   = /* latent heat of fusion */
(PID.TID 0000.0001)                 3.340000000000000E+05
(PID.TID 0000.0001)     ;
(PID.TID 0000.0001) SEAICE_mcPheePiston = /* turbulent flux "piston velocity" a la McPhee (m/s) */
(PID.TID 0000.0001)                 3.858024691358025E-05
(PID.TID 0000.0001)     ;
(PID.TID 0000.0001) SEAICE_mcPheeTaper = /* tapering of turbulent flux (0.< <1.) for AREA=1. */
(PID.TID 0000.0001)                 0.000000000000000E+00
(PID.TID 0000.0001)     ;
(PID.TID 0000.0001) SEAICE_mcPheeStepFunc = /* replace linear tapering with step funct. */
(PID.TID 0000.0001)                   F
(PID.TID 0000.0001)     ;
(PID.TID 0000.0001) SEAICE_frazilFrac = /* frazil (T<tempFrz) to seaice conversion rate (0.< <1.) */
(PID.TID 0000.0001)                 1.000000000000000E+00
(PID.TID 0000.0001)     ;
(PID.TID 0000.0001) SEAICE_tempFrz0   = /* freezing temp. of sea water (intercept) */
(PID.TID 0000.0001)                -1.960000000000000E+00
(PID.TID 0000.0001)     ;
(PID.TID 0000.0001) SEAICE_dTempFrz_dS= /* freezing temp. of sea water (slope) */
(PID.TID 0000.0001)                 0.000000000000000E+00
(PID.TID 0000.0001)     ;
(PID.TID 0000.0001) SEAICE_growMeltByConv  = /* grow,melt by vert. conv. */
(PID.TID 0000.0001)                   F
(PID.TID 0000.0001)     ;
(PID.TID 0000.0001) SEAICE_doOpenWaterGrowth = /* grow by open water */
(PID.TID 0000.0001)                   T
(PID.TID 0000.0001)     ;
(PID.TID 0000.0001) SEAICE_doOpenWaterMelt = /* melt by open water */
(PID.TID 0000.0001)                   F
(PID.TID 0000.0001)     ;
(PID.TID 0000.0001) SEAICE_areaGainFormula = /* ice cover gain formula (1,2)*/
(PID.TID 0000.0001)                       1
(PID.TID 0000.0001)     1=from growth by ATM
(PID.TID 0000.0001)     2=from predicted growth by ATM
(PID.TID 0000.0001)     ;
(PID.TID 0000.0001) SEAICE_areaLossFormula = /* ice cover loss formula (1,2)*/
(PID.TID 0000.0001)                       2
(PID.TID 0000.0001)     1=from all but only melt conributions by ATM and OCN
(PID.TID 0000.0001)     2=from net melt-grow>0 by ATM and OCN
(PID.TID 0000.0001)     3=from predicted melt by ATM
(PID.TID 0000.0001)     ;
(PID.TID 0000.0001) HO                = /* nominal thickness of new ice */
(PID.TID 0000.0001)                 5.000000000000000E-01
(PID.TID 0000.0001)     ;
(PID.TID 0000.0001) HO_south               = /* Southern Ocean HO */
(PID.TID 0000.0001)                 5.000000000000000E-01
(PID.TID 0000.0001)     ;
(PID.TID 0000.0001) SEAICE_area_max        = /* set to les than 1. to mimic open leads */
(PID.TID 0000.0001)                 9.500000000000000E-01
(PID.TID 0000.0001)     ;
(PID.TID 0000.0001) SEAICE_salt0   = /* constant sea ice salinity */
(PID.TID 0000.0001)                 4.000000000000000E+00
(PID.TID 0000.0001)     ;
(PID.TID 0000.0001) SEAICE_salinityTracer = /* test SITR varia. salinity */
(PID.TID 0000.0001)                   F
(PID.TID 0000.0001)     ;
(PID.TID 0000.0001) SEAICEuseFlooding = /* turn submerged snow into ice */
(PID.TID 0000.0001)                   T
(PID.TID 0000.0001)     ;
(PID.TID 0000.0001) 
(PID.TID 0000.0001)    Seaice air-sea fluxes configuration,   > START <
(PID.TID 0000.0001)    -----------------------------------------------
(PID.TID 0000.0001) SEAICEheatConsFix  = /* accound for ocn<->seaice advect. heat flux */
(PID.TID 0000.0001)                   T
(PID.TID 0000.0001)     ;
(PID.TID 0000.0001) SEAICE_multDim    = /* number of ice categories (1 or 7) */
(PID.TID 0000.0001)                       1
(PID.TID 0000.0001)     ;
(PID.TID 0000.0001) SEAICE_PDF        = /* sea-ice distribution (-) */
(PID.TID 0000.0001)                 1.000000000000000E+00,      /* K =  1 */
(PID.TID 0000.0001)     6 @  0.000000000000000E+00              /* K =  2:  7 */
(PID.TID 0000.0001)     ;
(PID.TID 0000.0001) IMAX_TICE         = /* iterations for ice surface temp */
(PID.TID 0000.0001)                      10
(PID.TID 0000.0001)     ;
(PID.TID 0000.0001) postSolvTempIter= /* flux calculation after surf. temp iter */
(PID.TID 0000.0001)                       2
(PID.TID 0000.0001)     ;
(PID.TID 0000.0001) SEAICE_dryIceAlb  = /* winter albedo */
(PID.TID 0000.0001)                 8.400000000000000E-01
(PID.TID 0000.0001)     ;
(PID.TID 0000.0001) SEAICE_wetIceAlb  = /* summer albedo */
(PID.TID 0000.0001)                 7.800000000000000E-01
(PID.TID 0000.0001)     ;
(PID.TID 0000.0001) SEAICE_drySnowAlb = /* dry snow albedo */
(PID.TID 0000.0001)                 9.000000000000000E-01
(PID.TID 0000.0001)     ;
(PID.TID 0000.0001) SEAICE_wetSnowAlb = /* wet snow albedo */
(PID.TID 0000.0001)                 8.000000000000000E-01
(PID.TID 0000.0001)     ;
(PID.TID 0000.0001) SEAICE_dryIceAlb_south = /* Southern Ocean dryIceAlb */
(PID.TID 0000.0001)                 7.500000000000000E-01
(PID.TID 0000.0001)     ;
(PID.TID 0000.0001) SEAICE_wetIceAlb_south = /* Southern Ocean wetIceAlb */
(PID.TID 0000.0001)                 6.600000000000000E-01
(PID.TID 0000.0001)     ;
(PID.TID 0000.0001) SEAICE_drySnowAlb_south= /* Southern Ocean drySnowAlb */
(PID.TID 0000.0001)                 8.400000000000000E-01
(PID.TID 0000.0001)     ;
(PID.TID 0000.0001) SEAICE_wetSnowAlb_south= /* Southern Ocean wetSnowAlb */
(PID.TID 0000.0001)                 7.000000000000000E-01
(PID.TID 0000.0001)     ;
(PID.TID 0000.0001) SEAICE_wetAlbTemp= /* Temp (o.C) threshold for wet-albedo */
(PID.TID 0000.0001)                -1.000000000000000E-03
(PID.TID 0000.0001)     ;
(PID.TID 0000.0001) SEAICE_snow_emiss = /* snow emissivity */
(PID.TID 0000.0001)                 9.500000000000000E-01
(PID.TID 0000.0001)     ;
(PID.TID 0000.0001) SEAICE_ice_emiss = /* seaice emissivity */
(PID.TID 0000.0001)                 9.500000000000000E-01
(PID.TID 0000.0001)     ;
(PID.TID 0000.0001) SEAICE_cpAir      = /* heat capacity of air */
(PID.TID 0000.0001)                 1.005000000000000E+03
(PID.TID 0000.0001)     ;
(PID.TID 0000.0001) SEAICE_dalton     = /* constant dalton number */
(PID.TID 0000.0001)                 1.750000000000000E-03
(PID.TID 0000.0001)     ;
(PID.TID 0000.0001) SEAICE_iceConduct = /* sea-ice conductivity */
(PID.TID 0000.0001)                 2.165600000000000E+00
(PID.TID 0000.0001)     ;
(PID.TID 0000.0001) SEAICE_snowConduct= /* snow conductivity */
(PID.TID 0000.0001)                 3.100000000000000E-01
(PID.TID 0000.0001)     ;
(PID.TID 0000.0001) SEAICE_snowThick  = /* cutoff snow thickness (for albedo) */
(PID.TID 0000.0001)                 1.500000000000000E-01
(PID.TID 0000.0001)     ;
(PID.TID 0000.0001) SEAICE_shortwave  = /* penetration shortwave radiation */
(PID.TID 0000.0001)                 3.000000000000000E-01
(PID.TID 0000.0001)     ;
(PID.TID 0000.0001) useMaykutSatVapPoly = /* use Maykut Polynomial for Sat.Vap.Pr */
(PID.TID 0000.0001)                   F
(PID.TID 0000.0001)     ;
(PID.TID 0000.0001) MIN_ATEMP         = /* minimum air temperature */
(PID.TID 0000.0001)                -4.000000000000000E+01
(PID.TID 0000.0001)     ;
(PID.TID 0000.0001) MIN_LWDOWN        = /* minimum downward longwave */
(PID.TID 0000.0001)                 6.000000000000000E+01
(PID.TID 0000.0001)     ;
(PID.TID 0000.0001) MIN_TICE          = /* minimum ice temperature */
(PID.TID 0000.0001)                -4.000000000000000E+01
(PID.TID 0000.0001)     ;
(PID.TID 0000.0001) 
(PID.TID 0000.0001)    Seaice initialization and IO config.,   > START <
(PID.TID 0000.0001)    -------------------------------------------------
(PID.TID 0000.0001) SEAICE_initialHEFF= /* initial sea-ice thickness */
(PID.TID 0000.0001)                 0.000000000000000E+00
(PID.TID 0000.0001)     ;
(PID.TID 0000.0001) AreaFile = /* Initial ice concentration File */
(PID.TID 0000.0001)               'Area.0005184000'
(PID.TID 0000.0001)     ;
(PID.TID 0000.0001) HeffFile = /* Initial effective ice thickness File */
(PID.TID 0000.0001)               'Heff.0005184000'
(PID.TID 0000.0001)     ;
(PID.TID 0000.0001) HsnowFile = /* Initial snow thickness File */
(PID.TID 0000.0001)               ''
(PID.TID 0000.0001)     ;
(PID.TID 0000.0001) uIceFile = /* Initial U-ice velocity File */
(PID.TID 0000.0001)               ''
(PID.TID 0000.0001)     ;
(PID.TID 0000.0001) vIceFile = /* Initial V-ice velocity File */
(PID.TID 0000.0001)               ''
(PID.TID 0000.0001)     ;
(PID.TID 0000.0001) SEAICEwriteState  = /* write sea ice state to file */
(PID.TID 0000.0001)                   F
(PID.TID 0000.0001)     ;
(PID.TID 0000.0001) SEAICE_monFreq  = /* monitor frequency */
(PID.TID 0000.0001)                 1.000000000000000E+00
(PID.TID 0000.0001)     ;
(PID.TID 0000.0001) SEAICE_dumpFreq   = /* dump frequency */
(PID.TID 0000.0001)                 0.000000000000000E+00
(PID.TID 0000.0001)     ;
(PID.TID 0000.0001) SEAICE_taveFreq   = /* time-averaging frequency */
(PID.TID 0000.0001)                 0.000000000000000E+00
(PID.TID 0000.0001)     ;
(PID.TID 0000.0001) SEAICE_mon_stdio  = /* write monitor to std-outp */
(PID.TID 0000.0001)                   T
(PID.TID 0000.0001)     ;
(PID.TID 0000.0001) SEAICE_dump_mdsio = /* write snap-shot   using MDSIO */
(PID.TID 0000.0001)                   T
(PID.TID 0000.0001)     ;
(PID.TID 0000.0001) SEAICE_tave_mdsio = /* write TimeAverage using MDSIO */
(PID.TID 0000.0001)                   T
(PID.TID 0000.0001)     ;
(PID.TID 0000.0001) 
(PID.TID 0000.0001)    Seaice regularization numbers,   > START <
(PID.TID 0000.0001)    -----------------------------------------------
(PID.TID 0000.0001) SEAICE_deltaMin   = /* reduce singularities in Delta */
(PID.TID 0000.0001)                 1.000000000000000E-10
(PID.TID 0000.0001)     ;
(PID.TID 0000.0001) SEAICE_EPS        = /* small number */
(PID.TID 0000.0001)                 1.000000000000000E-10
(PID.TID 0000.0001)     ;
(PID.TID 0000.0001) SEAICE_EPS_SQ     = /* small number squared */
(PID.TID 0000.0001)                 1.000000000000000E-20
(PID.TID 0000.0001)     ;
(PID.TID 0000.0001) SEAICE_area_reg   = /* reduce derivative singularities */
(PID.TID 0000.0001)                 1.000000000000000E-05
(PID.TID 0000.0001)     ;
(PID.TID 0000.0001) SEAICE_hice_reg   = /* reduce derivative singularities */
(PID.TID 0000.0001)                 5.000000000000000E-02
(PID.TID 0000.0001)     ;
(PID.TID 0000.0001) SEAICE_area_floor = /* reduce derivative singularities */
(PID.TID 0000.0001)                 1.000000000000000E-05
(PID.TID 0000.0001)     ;
(PID.TID 0000.0001) 
(PID.TID 0000.0001) // =======================================================
(PID.TID 0000.0001) // Seaice configuration (SEAICE_PARM01) >>> END <<<
(PID.TID 0000.0001) // =======================================================
(PID.TID 0000.0001) 
(PID.TID 0000.0001) ------------------------------------------------------------
(PID.TID 0000.0001) DIAGNOSTICS_SET_LEVELS: done
(PID.TID 0000.0001)  Total Nb of available Diagnostics: ndiagt=   830
(PID.TID 0000.0001)  write list of available Diagnostics to file: available_diagnostics.log
(PID.TID 0000.0001) SETDIAG: Allocate  1 x  1 Levels for Diagnostic #    23 ETAN
(PID.TID 0000.0001) SETDIAG: Allocate  1 x  1 Levels for Diagnostic #   757 SIarea
(PID.TID 0000.0001) SETDIAG: Allocate  1 x  1 Levels for Diagnostic #   760 SIheff
(PID.TID 0000.0001) SETDIAG: Allocate  1 x  1 Levels for Diagnostic #   762 SIhsnow
(PID.TID 0000.0001) SETDIAG: Allocate  1 x  1 Levels for Diagnostic #    25 DETADT2
(PID.TID 0000.0001) SETDIAG: Allocate  1 x  1 Levels for Diagnostic #    73 PHIBOT
(PID.TID 0000.0001) SETDIAG: Allocate  1 x  1 Levels for Diagnostic #    83 sIceLoad
(PID.TID 0000.0001) SETDIAG: Allocate  1 x  1 Levels for Diagnostic #    77 MXLDEPTH
(PID.TID 0000.0001) SETDIAG: Allocate  1 x  1 Levels for Diagnostic #   830 oceSPDep
(PID.TID 0000.0001) SETDIAG: Allocate  1 x  1 Levels for Diagnostic #   774 SIatmQnt
(PID.TID 0000.0001) SETDIAG: Allocate  1 x  1 Levels for Diagnostic #   781 SIatmFW
(PID.TID 0000.0001) SETDIAG: Allocate  1 x  1 Levels for Diagnostic #    86 oceQnet
(PID.TID 0000.0001) SETDIAG: Allocate  1 x  1 Levels for Diagnostic #    84 oceFWflx
(PID.TID 0000.0001) SETDIAG: Allocate  1 x  1 Levels for Diagnostic #    80 oceTAUX
(PID.TID 0000.0001) SETDIAG: Allocate  1 x  1 Levels for Diagnostic #    81 oceTAUY
(PID.TID 0000.0001) SETDIAG: Allocate  1 x  1 Levels for Diagnostic #   801 ADVxHEFF
(PID.TID 0000.0001) SETDIAG: Allocate  1 x  1 Levels for Diagnostic #   802 ADVyHEFF
(PID.TID 0000.0001) SETDIAG: Allocate  1 x  1 Levels for Diagnostic #   803 DFxEHEFF
(PID.TID 0000.0001) SETDIAG: Allocate  1 x  1 Levels for Diagnostic #   804 DFyEHEFF
(PID.TID 0000.0001) SETDIAG: Allocate  1 x  1 Levels for Diagnostic #   809 ADVxSNOW
(PID.TID 0000.0001) SETDIAG: Allocate  1 x  1 Levels for Diagnostic #   810 ADVySNOW
(PID.TID 0000.0001) SETDIAG: Allocate  1 x  1 Levels for Diagnostic #   811 DFxESNOW
(PID.TID 0000.0001) SETDIAG: Allocate  1 x  1 Levels for Diagnostic #   812 DFyESNOW
(PID.TID 0000.0001) SETDIAG: Allocate  1 x  1 Levels for Diagnostic #   766 SIuice
(PID.TID 0000.0001) SETDIAG: Allocate  1 x  1 Levels for Diagnostic #   767 SIvice
(PID.TID 0000.0001) SETDIAG: Allocate 15 x  1 Levels for Diagnostic #    26 THETA
(PID.TID 0000.0001) SETDIAG: Allocate 15 x  1 Levels for Diagnostic #    27 SALT
(PID.TID 0000.0001) SETDIAG: Allocate 15 x  1 Levels for Diagnostic #    78 DRHODR
(PID.TID 0000.0001) SETDIAG: Allocate 15 x  1 Levels for Diagnostic #    45 UVELMASS
(PID.TID 0000.0001) SETDIAG: Allocate 15 x  1 Levels for Diagnostic #    46 VVELMASS
(PID.TID 0000.0001) SETDIAG: Allocate 15 x  1 Levels for Diagnostic #    47 WVELMASS
(PID.TID 0000.0001) SETDIAG: Allocate 15 x  1 Levels for Diagnostic #   223 GM_PsiX
(PID.TID 0000.0001) SETDIAG: Allocate 15 x  1 Levels for Diagnostic #   224 GM_PsiY
(PID.TID 0000.0001) SETDIAG: Allocate 15 x  1 Levels for Diagnostic #   117 DFxE_TH
(PID.TID 0000.0001) SETDIAG: Allocate 15 x  1 Levels for Diagnostic #   118 DFyE_TH
(PID.TID 0000.0001) SETDIAG: Allocate 15 x  1 Levels for Diagnostic #   114 ADVx_TH
(PID.TID 0000.0001) SETDIAG: Allocate 15 x  1 Levels for Diagnostic #   115 ADVy_TH
(PID.TID 0000.0001) SETDIAG: Allocate 15 x  1 Levels for Diagnostic #   124 DFxE_SLT
(PID.TID 0000.0001) SETDIAG: Allocate 15 x  1 Levels for Diagnostic #   125 DFyE_SLT
(PID.TID 0000.0001) SETDIAG: Allocate 15 x  1 Levels for Diagnostic #   121 ADVx_SLT
(PID.TID 0000.0001) SETDIAG: Allocate 15 x  1 Levels for Diagnostic #   122 ADVy_SLT
(PID.TID 0000.0001) SETDIAG: Allocate  1 x  1 Levels for Diagnostic #    23 ETAN
(PID.TID 0000.0001) SETDIAG: Allocate  1 x  1 Levels for Diagnostic #   760 SIheff
(PID.TID 0000.0001) SETDIAG: Allocate  1 x  1 Levels for Diagnostic #   762 SIhsnow
(PID.TID 0000.0001) SETDIAG: Allocate  1 x  1 Levels for Diagnostic #   757 SIarea
(PID.TID 0000.0001) SETDIAG: Allocate  1 x  1 Levels for Diagnostic #    83 sIceLoad
(PID.TID 0000.0001) SETDIAG: Allocate  1 x  1 Levels for Diagnostic #    73 PHIBOT
(PID.TID 0000.0001) SETDIAG: Allocate 15 x  1 Levels for Diagnostic #    26 THETA
(PID.TID 0000.0001) SETDIAG: Allocate 15 x  1 Levels for Diagnostic #    27 SALT
(PID.TID 0000.0001) - NOTE - SETDIAG:  Diagnostic  #    84 oceFWflx is already set
(PID.TID 0000.0001) - NOTE - SETDIAG:  Diagnostic  #   781 SIatmFW  is already set
(PID.TID 0000.0001) SETDIAG: Allocate  1 x  1 Levels for Diagnostic #    93 TFLUX
(PID.TID 0000.0001) SETDIAG: Allocate  1 x  1 Levels for Diagnostic #   775 SItflux
(PID.TID 0000.0001) SETDIAG: Allocate  1 x  1 Levels for Diagnostic #    94 SFLUX
(PID.TID 0000.0001) SETDIAG: Allocate  1 x  1 Levels for Diagnostic #    87 oceQsw
(PID.TID 0000.0001) SETDIAG: Allocate  1 x  1 Levels for Diagnostic #   829 oceSPflx
(PID.TID 0000.0001) SETDIAG: Allocate  1 x  1 Levels for Diagnostic #   718 gDICsurf
(PID.TID 0000.0001) - NOTE - SETDIAG:  Diagnostic  #    45 UVELMASS is already set
(PID.TID 0000.0001) - NOTE - SETDIAG:  Diagnostic  #    46 VVELMASS is already set
(PID.TID 0000.0001) - NOTE - SETDIAG:  Diagnostic  #   114 ADVx_TH  is already set
(PID.TID 0000.0001) - NOTE - SETDIAG:  Diagnostic  #   115 ADVy_TH  is already set
(PID.TID 0000.0001) - NOTE - SETDIAG:  Diagnostic  #   117 DFxE_TH  is already set
(PID.TID 0000.0001) - NOTE - SETDIAG:  Diagnostic  #   118 DFyE_TH  is already set
(PID.TID 0000.0001) - NOTE - SETDIAG:  Diagnostic  #   121 ADVx_SLT is already set
(PID.TID 0000.0001) - NOTE - SETDIAG:  Diagnostic  #   122 ADVy_SLT is already set
(PID.TID 0000.0001) - NOTE - SETDIAG:  Diagnostic  #   124 DFxE_SLT is already set
(PID.TID 0000.0001) - NOTE - SETDIAG:  Diagnostic  #   125 DFyE_SLT is already set
(PID.TID 0000.0001) SETDIAG: Allocate 15 x  1 Levels for Diagnostic #   828 oceSPtnd
(PID.TID 0000.0001) SETDIAG: Allocate 15 x  1 Levels for Diagnostic #   107 AB_gT
(PID.TID 0000.0001) SETDIAG: Allocate 15 x  1 Levels for Diagnostic #   108 AB_gS
(PID.TID 0000.0001) - NOTE - SETDIAG:  Diagnostic  #   801 ADVxHEFF is already set
(PID.TID 0000.0001) - NOTE - SETDIAG:  Diagnostic  #   802 ADVyHEFF is already set
(PID.TID 0000.0001) - NOTE - SETDIAG:  Diagnostic  #   803 DFxEHEFF is already set
(PID.TID 0000.0001) - NOTE - SETDIAG:  Diagnostic  #   804 DFyEHEFF is already set
(PID.TID 0000.0001) - NOTE - SETDIAG:  Diagnostic  #   809 ADVxSNOW is already set
(PID.TID 0000.0001) - NOTE - SETDIAG:  Diagnostic  #   810 ADVySNOW is already set
(PID.TID 0000.0001) - NOTE - SETDIAG:  Diagnostic  #   811 DFxESNOW is already set
(PID.TID 0000.0001) - NOTE - SETDIAG:  Diagnostic  #   812 DFyESNOW is already set
(PID.TID 0000.0001) SETDIAG: Allocate  1 x  1 Levels for Diagnostic #    90 SRELAX
(PID.TID 0000.0001) SETDIAG: Allocate  1 x  1 Levels for Diagnostic #    89 TRELAX
(PID.TID 0000.0001) SETDIAG: Allocate 15 x  1 Levels for Diagnostic #    52 WTHMASS
(PID.TID 0000.0001) SETDIAG: Allocate 15 x  1 Levels for Diagnostic #    55 WSLTMASS
(PID.TID 0000.0001) SETDIAG: Allocate  1 x  1 Levels for Diagnostic #    85 oceSflux
(PID.TID 0000.0001) - NOTE - SETDIAG:  Diagnostic  #    86 oceQnet  is already set
(PID.TID 0000.0001) - NOTE - SETDIAG:  Diagnostic  #   774 SIatmQnt is already set
(PID.TID 0000.0001) SETDIAG: Allocate  1 x  1 Levels for Diagnostic #   776 SIaaflux
(PID.TID 0000.0001) SETDIAG: Allocate  1 x  1 Levels for Diagnostic #   782 SIsnPrcp
(PID.TID 0000.0001) SETDIAG: Allocate  1 x  1 Levels for Diagnostic #   784 SIacSubl
(PID.TID 0000.0001) - NOTE - SETDIAG:  Diagnostic  #   117 DFxE_TH  is already set
(PID.TID 0000.0001) - NOTE - SETDIAG:  Diagnostic  #   118 DFyE_TH  is already set
(PID.TID 0000.0001) - NOTE - SETDIAG:  Diagnostic  #   114 ADVx_TH  is already set
(PID.TID 0000.0001) - NOTE - SETDIAG:  Diagnostic  #   115 ADVy_TH  is already set
(PID.TID 0000.0001) - NOTE - SETDIAG:  Diagnostic  #   124 DFxE_SLT is already set
(PID.TID 0000.0001) - NOTE - SETDIAG:  Diagnostic  #   125 DFyE_SLT is already set
(PID.TID 0000.0001) - NOTE - SETDIAG:  Diagnostic  #   121 ADVx_SLT is already set
(PID.TID 0000.0001) - NOTE - SETDIAG:  Diagnostic  #   122 ADVy_SLT is already set
(PID.TID 0000.0001) SETDIAG: Allocate 15 x  1 Levels for Diagnostic #    64 RHOAnoma
(PID.TID 0000.0001) SETDIAG: Allocate 15 x  1 Levels for Diagnostic #    71 PHIHYD
(PID.TID 0000.0001) - NOTE - SETDIAG:  Diagnostic  #   828 oceSPtnd is already set
(PID.TID 0000.0001) SETDIAG: Allocate 15 x  1 Levels for Diagnostic #   113 ADVr_TH
(PID.TID 0000.0001) SETDIAG: Allocate 15 x  1 Levels for Diagnostic #   116 DFrE_TH
(PID.TID 0000.0001) SETDIAG: Allocate 15 x  1 Levels for Diagnostic #   119 DFrI_TH
(PID.TID 0000.0001) SETDIAG: Allocate 15 x  1 Levels for Diagnostic #   120 ADVr_SLT
(PID.TID 0000.0001) SETDIAG: Allocate 15 x  1 Levels for Diagnostic #   123 DFrE_SLT
(PID.TID 0000.0001) SETDIAG: Allocate 15 x  1 Levels for Diagnostic #   126 DFrI_SLT
(PID.TID 0000.0001) - NOTE - SETDIAG:  Diagnostic  #    47 WVELMASS is already set
(PID.TID 0000.0001) - NOTE - SETDIAG:  Diagnostic  #    93 TFLUX    is already set
(PID.TID 0000.0001) - NOTE - SETDIAG:  Diagnostic  #   775 SItflux  is already set
(PID.TID 0000.0001) - NOTE - SETDIAG:  Diagnostic  #    94 SFLUX    is already set
(PID.TID 0000.0001) - NOTE - SETDIAG:  Diagnostic  #    87 oceQsw   is already set
(PID.TID 0000.0001) - NOTE - SETDIAG:  Diagnostic  #   829 oceSPflx is already set
(PID.TID 0000.0001) - NOTE - SETDIAG:  Diagnostic  #   782 SIsnPrcp is already set
(PID.TID 0000.0001) - NOTE - SETDIAG:  Diagnostic  #   784 SIacSubl is already set
(PID.TID 0000.0001) - NOTE - SETDIAG:  Diagnostic  #    27 SALT     is already set
(PID.TID 0000.0001) SETDIAG: Allocate 15 x  1 Levels for Diagnostic #   230 TRAC01
(PID.TID 0000.0001) SETDIAG: Allocate 15 x  1 Levels for Diagnostic #   300 TRAC06
(PID.TID 0000.0001) SETDIAG: Allocate 15 x  1 Levels for Diagnostic #   230 TRAC01
(PID.TID 0000.0001) SETDIAG: Allocate 15 x  1 Levels for Diagnostic #   238 ADVxTr01
(PID.TID 0000.0001) SETDIAG: Allocate 15 x  1 Levels for Diagnostic #   239 ADVyTr01
(PID.TID 0000.0001) SETDIAG: Allocate 15 x  1 Levels for Diagnostic #   237 ADVrTr01
(PID.TID 0000.0001) SETDIAG: Allocate 15 x  1 Levels for Diagnostic #   241 DFxETr01
(PID.TID 0000.0001) SETDIAG: Allocate 15 x  1 Levels for Diagnostic #   242 DFyETr01
(PID.TID 0000.0001) SETDIAG: Allocate 15 x  1 Levels for Diagnostic #   240 DFrETr01
(PID.TID 0000.0001) SETDIAG: Allocate 15 x  1 Levels for Diagnostic #   243 DFrITr01
(PID.TID 0000.0001) SETDIAG: Allocate 15 x  1 Levels for Diagnostic #   680 gDAR01
(PID.TID 0000.0001) - NOTE - SETDIAG:  Diagnostic  #   230 TRAC01   is already set
(PID.TID 0000.0001) - NOTE - SETDIAG:  Diagnostic  #    26 THETA    is already set
(PID.TID 0000.0001) - NOTE - SETDIAG:  Diagnostic  #    27 SALT     is already set
(PID.TID 0000.0001) SETDIAG: Allocate 15 x  1 Levels for Diagnostic #   468 TRAC18
(PID.TID 0000.0001) SETDIAG: Allocate 15 x  1 Levels for Diagnostic #   286 TRAC05
(PID.TID 0000.0001) SETDIAG: Allocate 15 x  1 Levels for Diagnostic #   314 TRAC07
(PID.TID 0000.0001) SETDIAG: Allocate  1 x  1 Levels for Diagnostic #   717 fluxCO2
(PID.TID 0000.0001) - NOTE - SETDIAG:  Diagnostic  #   718 gDICsurf is already set
(PID.TID 0000.0001) SETDIAG: Allocate  1 x  1 Levels for Diagnostic #   725 surfpCO2
(PID.TID 0000.0001) SETDIAG: Allocate 15 x  1 Levels for Diagnostic #   300 TRAC06
(PID.TID 0000.0001) SETDIAG: Allocate 15 x  1 Levels for Diagnostic #   308 ADVxTr06
(PID.TID 0000.0001) SETDIAG: Allocate 15 x  1 Levels for Diagnostic #   309 ADVyTr06
(PID.TID 0000.0001) SETDIAG: Allocate 15 x  1 Levels for Diagnostic #   307 ADVrTr06
(PID.TID 0000.0001) SETDIAG: Allocate 15 x  1 Levels for Diagnostic #   311 DFxETr06
(PID.TID 0000.0001) SETDIAG: Allocate 15 x  1 Levels for Diagnostic #   312 DFyETr06
(PID.TID 0000.0001) SETDIAG: Allocate 15 x  1 Levels for Diagnostic #   310 DFrETr06
(PID.TID 0000.0001) SETDIAG: Allocate 15 x  1 Levels for Diagnostic #   313 DFrITr06
(PID.TID 0000.0001) SETDIAG: Allocate 15 x  1 Levels for Diagnostic #   675 C_Fe
(PID.TID 0000.0001) SETDIAG: Allocate 15 x  1 Levels for Diagnostic #   679 S_Fe
(PID.TID 0000.0001) SETDIAG: Allocate 15 x  1 Levels for Diagnostic #   685 gDAR06
(PID.TID 0000.0001) SETDIAG: Allocate 15 x  1 Levels for Diagnostic #   712 sedFe
(PID.TID 0000.0001) SETDIAG: Allocate 15 x  1 Levels for Diagnostic #   713 freeFe
(PID.TID 0000.0001) SETDIAG: Allocate  1 x  1 Levels for Diagnostic #   711 sfcSolFe
(PID.TID 0000.0001)   space allocated for all diagnostics:     916 levels
(PID.TID 0000.0001)   set mate pointer for diag #    80  oceTAUX  , Parms: UU      U1 , mate:    81
(PID.TID 0000.0001)   set mate pointer for diag #    81  oceTAUY  , Parms: VV      U1 , mate:    80
(PID.TID 0000.0001)   set mate pointer for diag #   801  ADVxHEFF , Parms: UU      M1 , mate:   802
(PID.TID 0000.0001)   set mate pointer for diag #   802  ADVyHEFF , Parms: VV      M1 , mate:   801
(PID.TID 0000.0001)   set mate pointer for diag #   803  DFxEHEFF , Parms: UU      M1 , mate:   804
(PID.TID 0000.0001)   set mate pointer for diag #   804  DFyEHEFF , Parms: VV      M1 , mate:   803
(PID.TID 0000.0001)   set mate pointer for diag #   809  ADVxSNOW , Parms: UU      M1 , mate:   810
(PID.TID 0000.0001)   set mate pointer for diag #   810  ADVySNOW , Parms: VV      M1 , mate:   809
(PID.TID 0000.0001)   set mate pointer for diag #   811  DFxESNOW , Parms: UU      M1 , mate:   812
(PID.TID 0000.0001)   set mate pointer for diag #   812  DFyESNOW , Parms: VV      M1 , mate:   811
(PID.TID 0000.0001)   set mate pointer for diag #   766  SIuice   , Parms: UU      M1 , mate:   767
(PID.TID 0000.0001)   set mate pointer for diag #   767  SIvice   , Parms: VV      M1 , mate:   766
(PID.TID 0000.0001)   set mate pointer for diag #    45  UVELMASS , Parms: UUr     MR , mate:    46
(PID.TID 0000.0001)   set mate pointer for diag #    46  VVELMASS , Parms: VVr     MR , mate:    45
(PID.TID 0000.0001)   set mate pointer for diag #   223  GM_PsiX  , Parms: UU      LR , mate:   224
(PID.TID 0000.0001)   set mate pointer for diag #   224  GM_PsiY  , Parms: VV      LR , mate:   223
(PID.TID 0000.0001)   set mate pointer for diag #   117  DFxE_TH  , Parms: UU      MR , mate:   118
(PID.TID 0000.0001)   set mate pointer for diag #   118  DFyE_TH  , Parms: VV      MR , mate:   117
(PID.TID 0000.0001)   set mate pointer for diag #   114  ADVx_TH  , Parms: UU      MR , mate:   115
(PID.TID 0000.0001)   set mate pointer for diag #   115  ADVy_TH  , Parms: VV      MR , mate:   114
(PID.TID 0000.0001)   set mate pointer for diag #   124  DFxE_SLT , Parms: UU      MR , mate:   125
(PID.TID 0000.0001)   set mate pointer for diag #   125  DFyE_SLT , Parms: VV      MR , mate:   124
(PID.TID 0000.0001)   set mate pointer for diag #   121  ADVx_SLT , Parms: UU      MR , mate:   122
(PID.TID 0000.0001)   set mate pointer for diag #   122  ADVy_SLT , Parms: VV      MR , mate:   121
(PID.TID 0000.0001)   set mate pointer for diag #    45  UVELMASS , Parms: UUr     MR , mate:    46
(PID.TID 0000.0001)   set mate pointer for diag #    46  VVELMASS , Parms: VVr     MR , mate:    45
(PID.TID 0000.0001)   set mate pointer for diag #   114  ADVx_TH  , Parms: UU      MR , mate:   115
(PID.TID 0000.0001)   set mate pointer for diag #   115  ADVy_TH  , Parms: VV      MR , mate:   114
(PID.TID 0000.0001)   set mate pointer for diag #   117  DFxE_TH  , Parms: UU      MR , mate:   118
(PID.TID 0000.0001)   set mate pointer for diag #   118  DFyE_TH  , Parms: VV      MR , mate:   117
(PID.TID 0000.0001)   set mate pointer for diag #   121  ADVx_SLT , Parms: UU      MR , mate:   122
(PID.TID 0000.0001)   set mate pointer for diag #   122  ADVy_SLT , Parms: VV      MR , mate:   121
(PID.TID 0000.0001)   set mate pointer for diag #   124  DFxE_SLT , Parms: UU      MR , mate:   125
(PID.TID 0000.0001)   set mate pointer for diag #   125  DFyE_SLT , Parms: VV      MR , mate:   124
(PID.TID 0000.0001)   set mate pointer for diag #   801  ADVxHEFF , Parms: UU      M1 , mate:   802
(PID.TID 0000.0001)   set mate pointer for diag #   802  ADVyHEFF , Parms: VV      M1 , mate:   801
(PID.TID 0000.0001)   set mate pointer for diag #   803  DFxEHEFF , Parms: UU      M1 , mate:   804
(PID.TID 0000.0001)   set mate pointer for diag #   804  DFyEHEFF , Parms: VV      M1 , mate:   803
(PID.TID 0000.0001)   set mate pointer for diag #   809  ADVxSNOW , Parms: UU      M1 , mate:   810
(PID.TID 0000.0001)   set mate pointer for diag #   810  ADVySNOW , Parms: VV      M1 , mate:   809
(PID.TID 0000.0001)   set mate pointer for diag #   811  DFxESNOW , Parms: UU      M1 , mate:   812
(PID.TID 0000.0001)   set mate pointer for diag #   812  DFyESNOW , Parms: VV      M1 , mate:   811
(PID.TID 0000.0001)   set mate pointer for diag #   117  DFxE_TH  , Parms: UU      MR , mate:   118
(PID.TID 0000.0001)   set mate pointer for diag #   118  DFyE_TH  , Parms: VV      MR , mate:   117
(PID.TID 0000.0001)   set mate pointer for diag #   114  ADVx_TH  , Parms: UU      MR , mate:   115
(PID.TID 0000.0001)   set mate pointer for diag #   115  ADVy_TH  , Parms: VV      MR , mate:   114
(PID.TID 0000.0001)   set mate pointer for diag #   124  DFxE_SLT , Parms: UU      MR , mate:   125
(PID.TID 0000.0001)   set mate pointer for diag #   125  DFyE_SLT , Parms: VV      MR , mate:   124
(PID.TID 0000.0001)   set mate pointer for diag #   121  ADVx_SLT , Parms: UU      MR , mate:   122
(PID.TID 0000.0001)   set mate pointer for diag #   122  ADVy_SLT , Parms: VV      MR , mate:   121
(PID.TID 0000.0001)   set mate pointer for diag #   238  ADVxTr01 , Parms: UU      MR , mate:   239
(PID.TID 0000.0001)   set mate pointer for diag #   239  ADVyTr01 , Parms: VV      MR , mate:   238
(PID.TID 0000.0001)   set mate pointer for diag #   241  DFxETr01 , Parms: UU      MR , mate:   242
(PID.TID 0000.0001)   set mate pointer for diag #   242  DFyETr01 , Parms: VV      MR , mate:   241
(PID.TID 0000.0001)   set mate pointer for diag #   308  ADVxTr06 , Parms: UU      MR , mate:   309
(PID.TID 0000.0001)   set mate pointer for diag #   309  ADVyTr06 , Parms: VV      MR , mate:   308
(PID.TID 0000.0001)   set mate pointer for diag #   311  DFxETr06 , Parms: UU      MR , mate:   312
(PID.TID 0000.0001)   set mate pointer for diag #   312  DFyETr06 , Parms: VV      MR , mate:   311
(PID.TID 0000.0001) DIAGNOSTICS_SET_POINTERS: Set levels for Outp.Stream: diags/state_2d_set1
(PID.TID 0000.0001)  Levels:       1.
(PID.TID 0000.0001) DIAGNOSTICS_SET_POINTERS: Set levels for Outp.Stream: diags/state_3d_set1
(PID.TID 0000.0001)  Levels:       1.   2.   3.   4.   5.   6.   7.   8.   9.  10.  11.  12.  13.  14.  15.
(PID.TID 0000.0001) DIAGNOSTICS_SET_POINTERS: Set levels for Outp.Stream: diags/trsp_3d_set1
(PID.TID 0000.0001)  Levels:       1.   2.   3.   4.   5.   6.   7.   8.   9.  10.  11.  12.  13.  14.  15.
(PID.TID 0000.0001) DIAGNOSTICS_SET_POINTERS: Set levels for Outp.Stream: diags/trsp_3d_set2
(PID.TID 0000.0001)  Levels:       1.   2.   3.   4.   5.   6.   7.   8.   9.  10.  11.  12.  13.  14.  15.
(PID.TID 0000.0001) DIAGNOSTICS_SET_POINTERS: Set levels for Outp.Stream: diags/budg2d_snap_set1
(PID.TID 0000.0001)  Levels:       1.
(PID.TID 0000.0001) DIAGNOSTICS_SET_POINTERS: Set levels for Outp.Stream: diags/budg2d_snap_set2
(PID.TID 0000.0001)  Sum Levels:   1.   2.   3.   4.   5.   6.   7.   8.   9.  10.  11.  12.  13.  14.  15.
(PID.TID 0000.0001) DIAGNOSTICS_SET_POINTERS: Set levels for Outp.Stream: diags/budg2d_zflux_set1
(PID.TID 0000.0001)  Levels:       1.
(PID.TID 0000.0001) DIAGNOSTICS_SET_POINTERS: Set levels for Outp.Stream: diags/budg2d_hflux_set2
(PID.TID 0000.0001)  Sum Levels:   1.   2.   3.   4.   5.   6.   7.   8.   9.  10.  11.  12.  13.  14.  15.
(PID.TID 0000.0001) DIAGNOSTICS_SET_POINTERS: Set levels for Outp.Stream: diags/budg2d_hflux_set1
(PID.TID 0000.0001)  Levels:       1.
(PID.TID 0000.0001) DIAGNOSTICS_SET_POINTERS: Set levels for Outp.Stream: diags/budg2d_zflux_set2
(PID.TID 0000.0001)  Levels:       1.
(PID.TID 0000.0001) DIAGNOSTICS_SET_POINTERS: Set levels for Outp.Stream: diags/trsp_2d_set1
(PID.TID 0000.0001)  Sum Levels:   1.   2.   3.   4.   5.   6.   7.   8.   9.  10.  11.  12.  13.  14.  15.
(PID.TID 0000.0001) DIAGNOSTICS_SET_POINTERS: Set levels for Outp.Stream: diags/state_3d_set2
(PID.TID 0000.0001)  Levels:       1.   2.   3.   4.   5.   6.   7.   8.   9.  10.  11.  12.  13.  14.  15.
(PID.TID 0000.0001) DIAGNOSTICS_SET_POINTERS: Set levels for Outp.Stream: diags/trsp_3d_set3
(PID.TID 0000.0001)  Levels:       1.   2.   3.   4.   5.   6.   7.   8.   9.  10.  11.  12.  13.  14.  15.
(PID.TID 0000.0001) DIAGNOSTICS_SET_POINTERS: Set levels for Outp.Stream: diags/state_2d_set2
(PID.TID 0000.0001)  Levels:       1.
(PID.TID 0000.0001) DIAGNOSTICS_SET_POINTERS: Set levels for Outp.Stream: diags/state_3d_snap_set1
(PID.TID 0000.0001)  Levels:       1.   2.   3.   4.   5.   6.   7.   8.   9.  10.  11.  12.  13.  14.  15.
(PID.TID 0000.0001) DIAGNOSTICS_SET_POINTERS: Set levels for Outp.Stream: diags/dic_physics
(PID.TID 0000.0001)  Levels:       1.   2.   3.   4.   5.   6.   7.   8.   9.  10.  11.  12.  13.  14.  15.
(PID.TID 0000.0001) DIAGNOSTICS_SET_POINTERS: Set levels for Outp.Stream: diags/dic_biology
(PID.TID 0000.0001)  Levels:       1.   2.   3.   4.   5.   6.   7.   8.   9.  10.  11.  12.  13.  14.  15.
(PID.TID 0000.0001) DIAGNOSTICS_SET_POINTERS: Set levels for Outp.Stream: diags/CO2_FLUX_BUDGET_DEPTH
(PID.TID 0000.0001)  Levels:       1.   2.   3.   4.   5.   6.   7.   8.   9.  10.  11.  12.  13.  14.  15.
(PID.TID 0000.0001) DIAGNOSTICS_SET_POINTERS: Set levels for Outp.Stream: diags/fe_physics
(PID.TID 0000.0001)  Levels:       1.   2.   3.   4.   5.   6.   7.   8.   9.  10.  11.  12.  13.  14.  15.
(PID.TID 0000.0001) DIAGNOSTICS_SET_POINTERS: Set levels for Outp.Stream: diags/fe_darwin_3d
(PID.TID 0000.0001)  Levels:       1.   2.   3.   4.   5.   6.   7.   8.   9.  10.  11.  12.  13.  14.  15.
(PID.TID 0000.0001) DIAGNOSTICS_SET_POINTERS: Set levels for Outp.Stream: diags/fe_darwin_2d
(PID.TID 0000.0001)  Levels:       1.
(PID.TID 0000.0001) DIAGNOSTICS_SET_POINTERS: done
(PID.TID 0000.0001) ------------------------------------------------------------
(PID.TID 0000.0001) DIAGSTATS_SET_REGIONS: define   0 regions:
(PID.TID 0000.0001) ------------------------------------------------------------
(PID.TID 0000.0001)   space allocated for all stats-diags:       0 levels
(PID.TID 0000.0001) DIAGSTATS_SET_POINTERS: done
(PID.TID 0000.0001) ------------------------------------------------------------
(PID.TID 0000.0001) %MON fCori_max                    =   1.4579854531444E-04
(PID.TID 0000.0001) %MON fCori_min                    =  -1.4579854531444E-04
(PID.TID 0000.0001) %MON fCori_mean                   =  -2.9116757561867E-21
(PID.TID 0000.0001) %MON fCori_sd                     =   1.0312619976228E-04
(PID.TID 0000.0001) %MON fCoriG_max                   =   1.4566679669714E-04
(PID.TID 0000.0001) %MON fCoriG_min                   =  -1.4584247033981E-04
(PID.TID 0000.0001) %MON fCoriG_mean                  =  -2.2787885990595E-06
(PID.TID 0000.0001) %MON fCoriG_sd                    =   1.0310101939326E-04
(PID.TID 0000.0001) %MON fCoriCos_max                 =   1.4579854531444E-04
(PID.TID 0000.0001) %MON fCoriCos_min                 =   3.5791533929553E-06
(PID.TID 0000.0001) %MON fCoriCos_mean                =   9.2855522572228E-05
(PID.TID 0000.0001) %MON fCoriCos_sd                  =   4.4864964117308E-05
(PID.TID 0000.0001) INI_CG2D: CG2D normalisation factor =  7.0372759228205380E-05
(PID.TID 0000.0001) INI_CG2D: cg2dTolerance = 1.937199317883865E-05 (Area=3.3033224886E+14)
(PID.TID 0000.0001) 
(PID.TID 0000.0001) // =======================================================
(PID.TID 0000.0001) // Model configuration
(PID.TID 0000.0001) // =======================================================
(PID.TID 0000.0001) //
(PID.TID 0000.0001) // "Physical" paramters ( PARM01 in namelist )
(PID.TID 0000.0001) //
(PID.TID 0000.0001) buoyancyRelation = /* Type of relation to get Buoyancy */
(PID.TID 0000.0001)               'OCEANIC'
(PID.TID 0000.0001)     ;
(PID.TID 0000.0001) fluidIsAir   =  /* fluid major constituent is Air */
(PID.TID 0000.0001)                   F
(PID.TID 0000.0001)     ;
(PID.TID 0000.0001) fluidIsWater =  /* fluid major constituent is Water */
(PID.TID 0000.0001)                   T
(PID.TID 0000.0001)     ;
(PID.TID 0000.0001) usingPCoords =  /* use p (or p*) vertical coordinate */
(PID.TID 0000.0001)                   F
(PID.TID 0000.0001)     ;
(PID.TID 0000.0001) usingZCoords =  /* use z (or z*) vertical coordinate */
(PID.TID 0000.0001)                   T
(PID.TID 0000.0001)     ;
(PID.TID 0000.0001) tRef =   /* Reference temperature profile ( oC or K ) */
(PID.TID 0000.0001)    15 @  2.000000000000000E+01              /* K =  1: 15 */
(PID.TID 0000.0001)     ;
(PID.TID 0000.0001) sRef =   /* Reference salinity profile ( psu ) */
(PID.TID 0000.0001)    15 @  3.500000000000000E+01              /* K =  1: 15 */
(PID.TID 0000.0001)     ;
(PID.TID 0000.0001) useStrainTensionVisc= /* Use StrainTension Form of Viscous Operator */
(PID.TID 0000.0001)                   F
(PID.TID 0000.0001)     ;
(PID.TID 0000.0001) useVariableVisc = /* Use variable horizontal viscosity */
(PID.TID 0000.0001)                   T
(PID.TID 0000.0001)     ;
(PID.TID 0000.0001) useHarmonicVisc = /* Use harmonic horizontal viscosity */
(PID.TID 0000.0001)                   T
(PID.TID 0000.0001)     ;
(PID.TID 0000.0001) useBiharmonicVisc= /* Use biharmonic horiz.  viscosity */
(PID.TID 0000.0001)                   T
(PID.TID 0000.0001)     ;
(PID.TID 0000.0001) useSmag3D = /* Use isotropic 3-D Smagorinsky viscosity */
(PID.TID 0000.0001)                   F
(PID.TID 0000.0001)     ;
(PID.TID 0000.0001) viscAh  =   /* Lateral harmonic viscosity ( m^2/s ) */
(PID.TID 0000.0001)                 2.000000000000000E+05
(PID.TID 0000.0001)     ;
(PID.TID 0000.0001) viscAhMax = /* Maximum lateral harmonic viscosity ( m^2/s ) */
(PID.TID 0000.0001)                 1.000000000000000E+21
(PID.TID 0000.0001)     ;
(PID.TID 0000.0001) viscAhGrid = /* Grid dependent lateral harmonic viscosity ( non-dim. ) */
(PID.TID 0000.0001)                 1.000000000000000E-02
(PID.TID 0000.0001)     ;
(PID.TID 0000.0001) useFullLeith = /* Use Full Form of Leith Viscosity on/off flag*/
(PID.TID 0000.0001)                   F
(PID.TID 0000.0001)     ;
(PID.TID 0000.0001) useAreaViscLength = /* Use area for visc length instead of geom. mean*/
(PID.TID 0000.0001)                   T
(PID.TID 0000.0001)     ;
(PID.TID 0000.0001) viscC2leith = /* Leith harmonic visc. factor (on grad(vort),non-dim.) */
(PID.TID 0000.0001)                 0.000000000000000E+00
(PID.TID 0000.0001)     ;
(PID.TID 0000.0001) viscC2leithD = /* Leith harmonic viscosity factor (on grad(div),non-dim.)*/
(PID.TID 0000.0001)                 0.000000000000000E+00
(PID.TID 0000.0001)     ;
(PID.TID 0000.0001) viscC2LeithQG = /* QG Leith harmonic viscosity factor (non-dim.)*/
(PID.TID 0000.0001)                 0.000000000000000E+00
(PID.TID 0000.0001)     ;
(PID.TID 0000.0001) viscC2smag = /* Smagorinsky harmonic viscosity factor (non-dim.) */
(PID.TID 0000.0001)                 0.000000000000000E+00
(PID.TID 0000.0001)     ;
(PID.TID 0000.0001) viscA4  =   /* Lateral biharmonic viscosity ( m^4/s ) */
(PID.TID 0000.0001)                 0.000000000000000E+00
(PID.TID 0000.0001)     ;
(PID.TID 0000.0001) viscA4Max = /* Maximum biharmonic viscosity ( m^2/s ) */
(PID.TID 0000.0001)                 1.000000000000000E+21
(PID.TID 0000.0001)     ;
(PID.TID 0000.0001) viscA4Grid = /* Grid dependent biharmonic viscosity ( non-dim. ) */
(PID.TID 0000.0001)                 0.000000000000000E+00
(PID.TID 0000.0001)     ;
(PID.TID 0000.0001) viscC4leith = /* Leith biharm viscosity factor (on grad(vort), non-dim.)*/
(PID.TID 0000.0001)                 1.500000000000000E+00
(PID.TID 0000.0001)     ;
(PID.TID 0000.0001) viscC4leithD = /* Leith biharm viscosity factor (on grad(div), non-dim.) */
(PID.TID 0000.0001)                 1.500000000000000E+00
(PID.TID 0000.0001)     ;
(PID.TID 0000.0001) viscC4Smag = /* Smagorinsky biharm viscosity factor (non-dim) */
(PID.TID 0000.0001)                 0.000000000000000E+00
(PID.TID 0000.0001)     ;
(PID.TID 0000.0001) no_slip_sides =  /* Viscous BCs: No-slip sides */
(PID.TID 0000.0001)                   T
(PID.TID 0000.0001)     ;
(PID.TID 0000.0001) sideDragFactor = /* side-drag scaling factor (non-dim) */
(PID.TID 0000.0001)                 2.000000000000000E+00
(PID.TID 0000.0001)     ;
(PID.TID 0000.0001) viscArNr = /* vertical profile of vertical viscosity ( m^2/s )*/
(PID.TID 0000.0001)    15 @  1.000000000000000E-03              /* K =  1: 15 */
(PID.TID 0000.0001)     ;
(PID.TID 0000.0001) no_slip_bottom =  /* Viscous BCs: No-slip bottom */
(PID.TID 0000.0001)                   T
(PID.TID 0000.0001)     ;
(PID.TID 0000.0001) bottomVisc_pCell = /* Partial-cell in bottom Visc. BC */
(PID.TID 0000.0001)                   F
(PID.TID 0000.0001)     ;
(PID.TID 0000.0001) bottomDragLinear = /* linear bottom-drag coefficient ( m/s ) */
(PID.TID 0000.0001)                 0.000000000000000E+00
(PID.TID 0000.0001)     ;
(PID.TID 0000.0001) bottomDragQuadratic = /* quadratic bottom-drag coefficient (-) */
(PID.TID 0000.0001)                 1.000000000000000E-03
(PID.TID 0000.0001)     ;
(PID.TID 0000.0001) selectBotDragQuadr = /* select quadratic bottom drag options */
(PID.TID 0000.0001)                       0
(PID.TID 0000.0001)     ;
(PID.TID 0000.0001) diffKhT =   /* Laplacian diffusion of heat laterally ( m^2/s ) */
(PID.TID 0000.0001)                 0.000000000000000E+00
(PID.TID 0000.0001)     ;
(PID.TID 0000.0001) diffK4T =   /* Biharmonic diffusion of heat laterally ( m^4/s ) */
(PID.TID 0000.0001)                 0.000000000000000E+00
(PID.TID 0000.0001)     ;
(PID.TID 0000.0001) diffKhS =   /* Laplacian diffusion of salt laterally ( m^2/s ) */
(PID.TID 0000.0001)                 0.000000000000000E+00
(PID.TID 0000.0001)     ;
(PID.TID 0000.0001) diffK4S =   /* Biharmonic diffusion of salt laterally ( m^4/s ) */
(PID.TID 0000.0001)                 0.000000000000000E+00
(PID.TID 0000.0001)     ;
(PID.TID 0000.0001) diffKrNrT = /* vertical profile of vertical diffusion of Temp ( m^2/s )*/
(PID.TID 0000.0001)    15 @  0.000000000000000E+00              /* K =  1: 15 */
(PID.TID 0000.0001)     ;
(PID.TID 0000.0001) diffKrNrS = /* vertical profile of vertical diffusion of Salt ( m^2/s )*/
(PID.TID 0000.0001)    15 @  0.000000000000000E+00              /* K =  1: 15 */
(PID.TID 0000.0001)     ;
(PID.TID 0000.0001) diffKrBL79surf = /* Surface diffusion for Bryan and Lewis 79 ( m^2/s ) */
(PID.TID 0000.0001)                 3.000000000000000E-05
(PID.TID 0000.0001)     ;
(PID.TID 0000.0001) diffKrBL79deep = /* Deep diffusion for Bryan and Lewis 1979 ( m^2/s ) */
(PID.TID 0000.0001)                 1.300000000000000E-04
(PID.TID 0000.0001)     ;
(PID.TID 0000.0001) diffKrBL79scl = /* Depth scale for Bryan and Lewis 1979 ( m ) */
(PID.TID 0000.0001)                 1.500000000000000E+02
(PID.TID 0000.0001)     ;
(PID.TID 0000.0001) diffKrBL79Ho = /* Turning depth for Bryan and Lewis 1979 ( m ) */
(PID.TID 0000.0001)                -2.000000000000000E+03
(PID.TID 0000.0001)     ;
(PID.TID 0000.0001) ivdc_kappa = /* Implicit Vertical Diffusivity for Convection ( m^2/s) */
(PID.TID 0000.0001)                 1.000000000000000E+01
(PID.TID 0000.0001)     ;
(PID.TID 0000.0001) hMixCriteria=  /* Criteria for mixed-layer diagnostic */
(PID.TID 0000.0001)                -8.000000000000000E-01
(PID.TID 0000.0001)     ;
(PID.TID 0000.0001) dRhoSmall =  /* Parameter for mixed-layer diagnostic */
(PID.TID 0000.0001)                 1.000000000000000E-06
(PID.TID 0000.0001)     ;
(PID.TID 0000.0001) hMixSmooth=  /* Smoothing parameter for mixed-layer diagnostic */
(PID.TID 0000.0001)                 0.000000000000000E+00
(PID.TID 0000.0001)     ;
(PID.TID 0000.0001) eosType =  /* Type of Equation of State */
(PID.TID 0000.0001)               'JMD95Z'
(PID.TID 0000.0001)     ;
(PID.TID 0000.0001) selectP_inEOS_Zc = /* select pressure to use in EOS (0,1,2,3) */
(PID.TID 0000.0001)                       0
(PID.TID 0000.0001)     0= -g*rhoConst*z ; 1= pRef (from tRef,sRef); 2= Hyd P ; 3= Hyd+NH P
(PID.TID 0000.0001)     ;
(PID.TID 0000.0001) HeatCapacity_Cp =  /* Specific heat capacity ( J/kg/K ) */
(PID.TID 0000.0001)                 3.994000000000000E+03
(PID.TID 0000.0001)     ;
(PID.TID 0000.0001) celsius2K = /* 0 degree Celsius converted to Kelvin ( K ) */
(PID.TID 0000.0001)                 2.731500000000000E+02
(PID.TID 0000.0001)     ;
(PID.TID 0000.0001) rhoConst  = /* Reference density (Boussinesq)  ( kg/m^3 ) */
(PID.TID 0000.0001)                 1.029000000000000E+03
(PID.TID 0000.0001)     ;
(PID.TID 0000.0001) rhoFacC = /* normalized Reference density @ cell-Center (-) */
(PID.TID 0000.0001)    15 @  1.000000000000000E+00              /* K =  1: 15 */
(PID.TID 0000.0001)     ;
(PID.TID 0000.0001) rhoFacF = /* normalized Reference density @ W-Interface (-) */
(PID.TID 0000.0001)    16 @  1.000000000000000E+00              /* K =  1: 16 */
(PID.TID 0000.0001)     ;
(PID.TID 0000.0001) rhoConstFresh = /* Fresh-water reference density ( kg/m^3 ) */
(PID.TID 0000.0001)                 1.000000000000000E+03
(PID.TID 0000.0001)     ;
(PID.TID 0000.0001) gravity =   /* Gravitational acceleration ( m/s^2 ) */
(PID.TID 0000.0001)                 9.810000000000000E+00
(PID.TID 0000.0001)     ;
(PID.TID 0000.0001) gBaro =   /* Barotropic gravity ( m/s^2 ) */
(PID.TID 0000.0001)                 9.810000000000000E+00
(PID.TID 0000.0001)     ;
(PID.TID 0000.0001) gravFacC = /* gravity factor (vs surf.) @ cell-Center (-) */
(PID.TID 0000.0001)    15 @  1.000000000000000E+00              /* K =  1: 15 */
(PID.TID 0000.0001)     ;
(PID.TID 0000.0001) gravFacF = /* gravity factor (vs surf.) @ W-Interface (-) */
(PID.TID 0000.0001)    16 @  1.000000000000000E+00              /* K =  1: 16 */
(PID.TID 0000.0001)     ;
(PID.TID 0000.0001) rotationPeriod =   /* Rotation Period ( s ) */
(PID.TID 0000.0001)                 8.616400000000000E+04
(PID.TID 0000.0001)     ;
(PID.TID 0000.0001) omega =   /* Angular velocity ( rad/s ) */
(PID.TID 0000.0001)                 7.292123516990375E-05
(PID.TID 0000.0001)     ;
(PID.TID 0000.0001) f0 =   /* Reference coriolis parameter ( 1/s ) */
(PID.TID 0000.0001)                 1.000000000000000E-04
(PID.TID 0000.0001)     ;
(PID.TID 0000.0001) beta =   /* Beta ( 1/(m.s) ) */
(PID.TID 0000.0001)                 9.999999999999999E-12
(PID.TID 0000.0001)     ;
(PID.TID 0000.0001) fPrime =   /* Second coriolis parameter ( 1/s ) */
(PID.TID 0000.0001)                 0.000000000000000E+00
(PID.TID 0000.0001)     ;
(PID.TID 0000.0001) rigidLid =   /* Rigid lid on/off flag */
(PID.TID 0000.0001)                   F
(PID.TID 0000.0001)     ;
(PID.TID 0000.0001) implicitFreeSurface =   /* Implicit free surface on/off flag */
(PID.TID 0000.0001)                   T
(PID.TID 0000.0001)     ;
(PID.TID 0000.0001) freeSurfFac =   /* Implicit free surface factor */
(PID.TID 0000.0001)                 1.000000000000000E+00
(PID.TID 0000.0001)     ;
(PID.TID 0000.0001) implicSurfPress =  /* Surface Pressure implicit factor (0-1)*/
(PID.TID 0000.0001)                 1.000000000000000E+00
(PID.TID 0000.0001)     ;
(PID.TID 0000.0001) implicDiv2DFlow =  /* Barot. Flow Div. implicit factor (0-1)*/
(PID.TID 0000.0001)                 1.000000000000000E+00
(PID.TID 0000.0001)     ;
(PID.TID 0000.0001) uniformLin_PhiSurf = /* use uniform Bo_surf on/off flag*/
(PID.TID 0000.0001)                   T
(PID.TID 0000.0001)     ;
(PID.TID 0000.0001) uniformFreeSurfLev = /* free-surface level-index is uniform */
(PID.TID 0000.0001)                   T
(PID.TID 0000.0001)     ;
(PID.TID 0000.0001) hFacMin =   /* minimum partial cell factor (hFac) */
(PID.TID 0000.0001)                 1.000000000000000E-01
(PID.TID 0000.0001)     ;
(PID.TID 0000.0001) hFacMinDr = /* minimum partial cell thickness ( m) */
(PID.TID 0000.0001)                 5.000000000000000E+01
(PID.TID 0000.0001)     ;
(PID.TID 0000.0001) exactConserv =  /* Exact Volume Conservation on/off flag*/
(PID.TID 0000.0001)                   T
(PID.TID 0000.0001)     ;
(PID.TID 0000.0001) linFSConserveTr = /* Tracer correction for Lin Free Surface on/off flag*/
(PID.TID 0000.0001)                   F
(PID.TID 0000.0001)     ;
(PID.TID 0000.0001) nonlinFreeSurf = /* Non-linear Free Surf. options (-1,0,1,2,3)*/
(PID.TID 0000.0001)                       4
(PID.TID 0000.0001)      -1,0= Off ; 1,2,3= On, 2=+rescale gU,gV, 3=+update cg2d solv.
(PID.TID 0000.0001)     ;
(PID.TID 0000.0001) hFacInf =   /* lower threshold for hFac (nonlinFreeSurf only)*/
(PID.TID 0000.0001)                 1.000000000000000E-01
(PID.TID 0000.0001)     ;
(PID.TID 0000.0001) hFacSup =   /* upper threshold for hFac (nonlinFreeSurf only)*/
(PID.TID 0000.0001)                 5.000000000000000E+00
(PID.TID 0000.0001)     ;
(PID.TID 0000.0001) select_rStar = /* r* Vertical coord. options (=0 r coord.; >0 uses r*)*/
(PID.TID 0000.0001)                       2
(PID.TID 0000.0001)     ;
(PID.TID 0000.0001) useRealFreshWaterFlux = /* Real Fresh Water Flux on/off flag*/
(PID.TID 0000.0001)                   T
(PID.TID 0000.0001)     ;
(PID.TID 0000.0001) temp_EvPrRn = /* Temp. of Evap/Prec/R (UNSET=use local T)(oC)*/
(PID.TID 0000.0001)                 1.234567000000000E+05
(PID.TID 0000.0001)     ;
(PID.TID 0000.0001) salt_EvPrRn = /* Salin. of Evap/Prec/R (UNSET=use local S)(psu)*/
(PID.TID 0000.0001)                 0.000000000000000E+00
(PID.TID 0000.0001)     ;
(PID.TID 0000.0001) selectAddFluid = /* option for mass source/sink of fluid (=0: off) */
(PID.TID 0000.0001)                       0
(PID.TID 0000.0001)     ;
(PID.TID 0000.0001) temp_addMass = /* Temp. of addMass array (UNSET=use local T)(oC)*/
(PID.TID 0000.0001)                 1.234567000000000E+05
(PID.TID 0000.0001)     ;
(PID.TID 0000.0001) salt_addMass = /* Salin. of addMass array (UNSET=use local S)(psu)*/
(PID.TID 0000.0001)                 0.000000000000000E+00
(PID.TID 0000.0001)     ;
(PID.TID 0000.0001) use3Dsolver = /* use 3-D pressure solver on/off flag */
(PID.TID 0000.0001)                   F
(PID.TID 0000.0001)     ;
(PID.TID 0000.0001) nonHydrostatic =  /* Non-Hydrostatic on/off flag */
(PID.TID 0000.0001)                   F
(PID.TID 0000.0001)     ;
(PID.TID 0000.0001) nh_Am2 = /* Non-Hydrostatic terms scaling factor */
(PID.TID 0000.0001)                 1.000000000000000E+00
(PID.TID 0000.0001)     ;
(PID.TID 0000.0001) implicitNHPress = /* Non-Hyd Pressure implicit factor (0-1)*/
(PID.TID 0000.0001)                 1.000000000000000E+00
(PID.TID 0000.0001)     ;
(PID.TID 0000.0001) selectNHfreeSurf = /* Non-Hyd (free-)Surface option */
(PID.TID 0000.0001)                       0
(PID.TID 0000.0001)     ;
(PID.TID 0000.0001) quasiHydrostatic = /* Quasi-Hydrostatic on/off flag */
(PID.TID 0000.0001)                   F
(PID.TID 0000.0001)     ;
(PID.TID 0000.0001) calc_wVelocity = /* vertical velocity calculation on/off flag */
(PID.TID 0000.0001)                   T
(PID.TID 0000.0001)     ;
(PID.TID 0000.0001) momStepping =  /* Momentum equation on/off flag */
(PID.TID 0000.0001)                   T
(PID.TID 0000.0001)     ;
(PID.TID 0000.0001) vectorInvariantMomentum= /* Vector-Invariant Momentum on/off */
(PID.TID 0000.0001)                   T
(PID.TID 0000.0001)     ;
(PID.TID 0000.0001) momAdvection =  /* Momentum advection on/off flag */
(PID.TID 0000.0001)                   T
(PID.TID 0000.0001)     ;
(PID.TID 0000.0001) momViscosity =  /* Momentum viscosity on/off flag */
(PID.TID 0000.0001)                   T
(PID.TID 0000.0001)     ;
(PID.TID 0000.0001) momImplVertAdv= /* Momentum implicit vert. advection on/off*/
(PID.TID 0000.0001)                   F
(PID.TID 0000.0001)     ;
(PID.TID 0000.0001) implicitViscosity = /* Implicit viscosity on/off flag */
(PID.TID 0000.0001)                   T
(PID.TID 0000.0001)     ;
(PID.TID 0000.0001) selectImplicitDrag= /* Implicit bot Drag options (0,1,2)*/
(PID.TID 0000.0001)                       0
(PID.TID 0000.0001)     0= Expl. ; 1= Impl. on provis. Vel ; 2= Fully Impl (with surf.P)
(PID.TID 0000.0001)     ;
(PID.TID 0000.0001) metricTerms =  /* metric-Terms on/off flag */
(PID.TID 0000.0001)                   T
(PID.TID 0000.0001)     ;
(PID.TID 0000.0001) useNHMTerms = /* Non-Hydrostatic Metric-Terms on/off */
(PID.TID 0000.0001)                   F
(PID.TID 0000.0001)     ;
(PID.TID 0000.0001) selectCoriMap = /* Coriolis Map options (0,1,2,3)*/
(PID.TID 0000.0001)                       2
(PID.TID 0000.0001)     0= f-Plane ; 1= Beta-Plane ; 2= Spherical ; 3= read from file
(PID.TID 0000.0001)     ;
(PID.TID 0000.0001) use3dCoriolis = /* 3-D Coriolis on/off flag */
(PID.TID 0000.0001)                   F
(PID.TID 0000.0001)     ;
(PID.TID 0000.0001) useCoriolis =  /* Coriolis on/off flag */
(PID.TID 0000.0001)                   T
(PID.TID 0000.0001)     ;
(PID.TID 0000.0001) useCDscheme =  /* CD scheme on/off flag */
(PID.TID 0000.0001)                   T
(PID.TID 0000.0001)     ;
(PID.TID 0000.0001) selectCoriScheme= /* Scheme selector for Coriolis-Term */
(PID.TID 0000.0001)                       1
(PID.TID 0000.0001)    = 0 : original discretization (simple averaging, no hFac)
(PID.TID 0000.0001)    = 1 : Wet-point averaging (Jamar & Ozer 1986)
(PID.TID 0000.0001)    = 2 : hFac weighted average (Angular Mom. conserving)
(PID.TID 0000.0001)    = 3 : energy conserving scheme using hFac weighted average
(PID.TID 0000.0001)     ;
(PID.TID 0000.0001) useAbsVorticity= /* V.I Works with f+zeta in Coriolis */
(PID.TID 0000.0001)                   F
(PID.TID 0000.0001)     ;
(PID.TID 0000.0001) selectVortScheme= /* V.I Scheme selector for Vorticity-Term */
(PID.TID 0000.0001)                       1
(PID.TID 0000.0001)    = 0 : enstrophy (Shallow-Water Eq.) conserving scheme by Sadourny, JAS 75
(PID.TID 0000.0001)    = 1 : same as 0 with modified hFac
(PID.TID 0000.0001)    = 2 : energy conserving scheme (used by Sadourny in JAS 75 paper)
(PID.TID 0000.0001)    = 3 : energy (general) and enstrophy (2D, nonDiv.) conserving scheme
(PID.TID 0000.0001)          from Sadourny (Burridge & Haseler, ECMWF Rep.4, 1977)
(PID.TID 0000.0001)     ;
(PID.TID 0000.0001) useJamartMomAdv= /* V.I Non-linear terms Jamart flag */
(PID.TID 0000.0001)                   F
(PID.TID 0000.0001)     ;
(PID.TID 0000.0001) upwindVorticity= /* V.I Upwind bias vorticity flag */
(PID.TID 0000.0001)                   F
(PID.TID 0000.0001)     ;
(PID.TID 0000.0001) highOrderVorticity= /* V.I High order vort. advect. flag */
(PID.TID 0000.0001)                   F
(PID.TID 0000.0001)     ;
(PID.TID 0000.0001) upwindShear= /* V.I Upwind vertical Shear advection flag */
(PID.TID 0000.0001)                   F
(PID.TID 0000.0001)     ;
(PID.TID 0000.0001) selectKEscheme= /* V.I Kinetic Energy scheme selector */
(PID.TID 0000.0001)                       0
(PID.TID 0000.0001)     ;
(PID.TID 0000.0001) momForcing =  /* Momentum forcing on/off flag */
(PID.TID 0000.0001)                   T
(PID.TID 0000.0001)     ;
(PID.TID 0000.0001) momTidalForcing = /* Momentum Tidal forcing on/off flag */
(PID.TID 0000.0001)                   T
(PID.TID 0000.0001)     ;
(PID.TID 0000.0001) momPressureForcing =  /* Momentum pressure term on/off flag */
(PID.TID 0000.0001)                   T
(PID.TID 0000.0001)     ;
(PID.TID 0000.0001) implicitIntGravWave= /* Implicit Internal Gravity Wave flag */
(PID.TID 0000.0001)                   F
(PID.TID 0000.0001)     ;
(PID.TID 0000.0001) staggerTimeStep =    /* Stagger time stepping on/off flag */
(PID.TID 0000.0001)                   T
(PID.TID 0000.0001)     ;
(PID.TID 0000.0001) doResetHFactors = /* reset thickness factors @ each time-step */
(PID.TID 0000.0001)                   F
(PID.TID 0000.0001)     ;
(PID.TID 0000.0001) multiDimAdvection =  /* enable/disable Multi-Dim Advection */
(PID.TID 0000.0001)                   T
(PID.TID 0000.0001)     ;
(PID.TID 0000.0001) useMultiDimAdvec =   /* Multi-Dim Advection is/is-not used */
(PID.TID 0000.0001)                   T
(PID.TID 0000.0001)     ;
(PID.TID 0000.0001) implicitDiffusion = /* Implicit Diffusion on/off flag */
(PID.TID 0000.0001)                   T
(PID.TID 0000.0001)     ;
(PID.TID 0000.0001) tempStepping =  /* Temperature equation on/off flag */
(PID.TID 0000.0001)                   T
(PID.TID 0000.0001)     ;
(PID.TID 0000.0001) tempAdvection = /* Temperature advection on/off flag */
(PID.TID 0000.0001)                   T
(PID.TID 0000.0001)     ;
(PID.TID 0000.0001) tempImplVertAdv = /* Temp. implicit vert. advection on/off */
(PID.TID 0000.0001)                   T
(PID.TID 0000.0001)     ;
(PID.TID 0000.0001) tempForcing  =  /* Temperature forcing on/off flag */
(PID.TID 0000.0001)                   T
(PID.TID 0000.0001)     ;
(PID.TID 0000.0001) balanceQnet  =  /* balance net heat-flux on/off flag */
(PID.TID 0000.0001)                   F
(PID.TID 0000.0001)     ;
(PID.TID 0000.0001) doThetaClimRelax = /* apply SST relaxation on/off flag */
(PID.TID 0000.0001)                   F
(PID.TID 0000.0001)     ;
(PID.TID 0000.0001) balanceThetaClimRelax= /* balance SST relaxation on/off flag */
(PID.TID 0000.0001)                   F
(PID.TID 0000.0001)     ;
(PID.TID 0000.0001) tempIsActiveTr = /* Temp. is a dynamically Active Tracer */
(PID.TID 0000.0001)                   T
(PID.TID 0000.0001)     ;
(PID.TID 0000.0001) saltStepping =  /* Salinity equation on/off flag */
(PID.TID 0000.0001)                   T
(PID.TID 0000.0001)     ;
(PID.TID 0000.0001) saltAdvection = /* Salinity advection on/off flag */
(PID.TID 0000.0001)                   T
(PID.TID 0000.0001)     ;
(PID.TID 0000.0001) saltImplVertAdv = /* Sali. implicit vert. advection on/off */
(PID.TID 0000.0001)                   T
(PID.TID 0000.0001)     ;
(PID.TID 0000.0001) saltForcing  =  /* Salinity forcing on/off flag */
(PID.TID 0000.0001)                   T
(PID.TID 0000.0001)     ;
(PID.TID 0000.0001) balanceEmPmR =  /* balance net fresh-water flux on/off flag */
(PID.TID 0000.0001)                   F
(PID.TID 0000.0001)     ;
(PID.TID 0000.0001) doSaltClimRelax = /* apply SSS relaxation on/off flag */
(PID.TID 0000.0001)                   F
(PID.TID 0000.0001)     ;
(PID.TID 0000.0001) balanceSaltClimRelax= /* balance SSS relaxation on/off flag */
(PID.TID 0000.0001)                   T
(PID.TID 0000.0001)     ;
(PID.TID 0000.0001) saltIsActiveTr = /* Salt  is a dynamically Active Tracer */
(PID.TID 0000.0001)                   T
(PID.TID 0000.0001)     ;
(PID.TID 0000.0001)  readBinaryPrec = /* Precision used for reading binary files */
(PID.TID 0000.0001)                      32
(PID.TID 0000.0001)     ;
(PID.TID 0000.0001) writeBinaryPrec = /* Precision used for writing binary files */
(PID.TID 0000.0001)                      32
(PID.TID 0000.0001)     ;
(PID.TID 0000.0001) balancePrintMean  =  /* print means for balancing fluxes */
(PID.TID 0000.0001)                   F
(PID.TID 0000.0001)     ;
(PID.TID 0000.0001)  rwSuffixType =   /* select format of mds file suffix */
(PID.TID 0000.0001)                       0
(PID.TID 0000.0001)    = 0 : myIter (I10.10) ;   = 1 : 100*myTime (100th sec) ;
(PID.TID 0000.0001)    = 2 : myTime (seconds);   = 3 : myTime/360 (10th of hr);
(PID.TID 0000.0001)    = 4 : myTime/3600 (hours)
(PID.TID 0000.0001)     ;
(PID.TID 0000.0001)  globalFiles = /* write "global" (=not per tile) files */
(PID.TID 0000.0001)                   F
(PID.TID 0000.0001)     ;
(PID.TID 0000.0001)  useSingleCpuIO = /* only master MPI process does I/O */
(PID.TID 0000.0001)                   T
(PID.TID 0000.0001)     ;
(PID.TID 0000.0001)  useSingleCpuInput = /* only master process reads input */
(PID.TID 0000.0001)                   T
(PID.TID 0000.0001)     ;
(PID.TID 0000.0001) /* debLev[*]  : level of debug & auxiliary message printing */
(PID.TID 0000.0001) debLevZero =  0 ; /* level of disabled aux. msg printing */
(PID.TID 0000.0001)    debLevA =  1 ; /* level of minimum  aux. msg printing */
(PID.TID 0000.0001)    debLevB =  2 ; /* level of low aux. print (report read-file opening)*/
(PID.TID 0000.0001)    debLevC =  3 ; /* level of moderate debug prt (most pkgs debug msg) */
(PID.TID 0000.0001)    debLevD =  4 ; /* level of enhanced debug prt (add DEBUG_STATS prt) */
(PID.TID 0000.0001)    debLevE =  5 ; /* level of extensive debug printing */
(PID.TID 0000.0001) debugLevel =  /* select debug printing level */
(PID.TID 0000.0001)                       1
(PID.TID 0000.0001)     ;
(PID.TID 0000.0001)  plotLevel =  /* select PLOT_FIELD printing level */
(PID.TID 0000.0001)                       1
(PID.TID 0000.0001)     ;
(PID.TID 0000.0001) //
(PID.TID 0000.0001) // Elliptic solver(s) paramters ( PARM02 in namelist )
(PID.TID 0000.0001) //
(PID.TID 0000.0001) cg2dMaxIters =   /* Upper limit on 2d con. grad iterations  */
(PID.TID 0000.0001)                     300
(PID.TID 0000.0001)     ;
(PID.TID 0000.0001) cg2dChkResFreq =   /* 2d con. grad convergence test frequency */
(PID.TID 0000.0001)                       1
(PID.TID 0000.0001)     ;
(PID.TID 0000.0001) cg2dUseMinResSol= /* use cg2d last-iter(=0) / min-resid.(=1) solution */
(PID.TID 0000.0001)                       0
(PID.TID 0000.0001)     ;
(PID.TID 0000.0001) cg2dTargetResidual =   /* 2d con. grad target residual  */
(PID.TID 0000.0001)                 1.000000000000000E-07
(PID.TID 0000.0001)     ;
(PID.TID 0000.0001) cg2dTargetResWunit =   /* CG2d target residual [W units] */
(PID.TID 0000.0001)                 1.000000000000000E-12
(PID.TID 0000.0001)     ;
(PID.TID 0000.0001) cg2dPreCondFreq =   /* Freq. for updating cg2d preconditioner */
(PID.TID 0000.0001)                       1
(PID.TID 0000.0001)     ;
(PID.TID 0000.0001) useSRCGSolver =  /* use single reduction CG solver(s) */
(PID.TID 0000.0001)                   F
(PID.TID 0000.0001)     ;
(PID.TID 0000.0001) printResidualFreq = /* Freq. for printing CG residual */
(PID.TID 0000.0001)                       0
(PID.TID 0000.0001)     ;
(PID.TID 0000.0001) //
(PID.TID 0000.0001) // Time stepping paramters ( PARM03 in namelist )
(PID.TID 0000.0001) //
(PID.TID 0000.0001) deltaTMom =   /* Momentum equation timestep ( s ) */
(PID.TID 0000.0001)                 1.200000000000000E+03
(PID.TID 0000.0001)     ;
(PID.TID 0000.0001) deltaTFreeSurf = /* FreeSurface equation timestep ( s ) */
(PID.TID 0000.0001)                 1.200000000000000E+03
(PID.TID 0000.0001)     ;
(PID.TID 0000.0001) dTtracerLev =  /* Tracer equation timestep ( s ) */
(PID.TID 0000.0001)    15 @  1.200000000000000E+03              /* K =  1: 15 */
(PID.TID 0000.0001)     ;
(PID.TID 0000.0001) deltaTClock  =   /* Model clock timestep ( s ) */
(PID.TID 0000.0001)                 1.200000000000000E+03
(PID.TID 0000.0001)     ;
(PID.TID 0000.0001) cAdjFreq =   /* Convective adjustment interval ( s ) */
(PID.TID 0000.0001)                 0.000000000000000E+00
(PID.TID 0000.0001)     ;
(PID.TID 0000.0001) momForcingOutAB = /* =1: take Momentum Forcing out of Adams-Bash. stepping */
(PID.TID 0000.0001)                       1
(PID.TID 0000.0001)     ;
(PID.TID 0000.0001) tracForcingOutAB = /* =1: take T,S,pTr Forcing out of Adams-Bash. stepping */
(PID.TID 0000.0001)                       1
(PID.TID 0000.0001)     ;
(PID.TID 0000.0001) momDissip_In_AB = /* put Dissipation Tendency in Adams-Bash. stepping */
(PID.TID 0000.0001)                   F
(PID.TID 0000.0001)     ;
(PID.TID 0000.0001) doAB_onGtGs = /* apply AB on Tendencies (rather than on T,S)*/
(PID.TID 0000.0001)                   F
(PID.TID 0000.0001)     ;
(PID.TID 0000.0001) abEps =   /* Adams-Bashforth-2 stabilizing weight */
(PID.TID 0000.0001)                 1.000000000000000E-02
(PID.TID 0000.0001)     ;
(PID.TID 0000.0001) alph_AB =   /* Adams-Bashforth-3 primary factor */
(PID.TID 0000.0001)                 5.000000000000000E-01
(PID.TID 0000.0001)     ;
(PID.TID 0000.0001) beta_AB =   /* Adams-Bashforth-3 secondary factor */
(PID.TID 0000.0001)                 2.811050000000000E-01
(PID.TID 0000.0001)     ;
(PID.TID 0000.0001) startFromPickupAB2= /* start from AB-2 pickup */
(PID.TID 0000.0001)                   F
(PID.TID 0000.0001)     ;
(PID.TID 0000.0001) applyExchUV_early = /* Apply EXCH to U,V earlier in time-step */
(PID.TID 0000.0001)                   F
(PID.TID 0000.0001)     ;
(PID.TID 0000.0001) tauCD =   /* CD coupling time-scale ( s ) */
(PID.TID 0000.0001)                 3.214280000000000E+05
(PID.TID 0000.0001)     ;
(PID.TID 0000.0001) rCD =   /* Normalised CD coupling parameter */
(PID.TID 0000.0001)                 9.962666600296178E-01
(PID.TID 0000.0001)     ;
(PID.TID 0000.0001) epsAB_CD = /* AB-2 stabilizing weight for CD-scheme*/
(PID.TID 0000.0001)                 1.000000000000000E-02
(PID.TID 0000.0001)     ;
(PID.TID 0000.0001) pickupStrictlyMatch= /* stop if pickup do not strictly match */
(PID.TID 0000.0001)                   F
(PID.TID 0000.0001)     ;
(PID.TID 0000.0001) nIter0   =   /* Run starting timestep number */
(PID.TID 0000.0001)                       0
(PID.TID 0000.0001)     ;
(PID.TID 0000.0001) nTimeSteps = /* Number of timesteps */
(PID.TID 0000.0001)                       4
(PID.TID 0000.0001)     ;
(PID.TID 0000.0001) nEndIter =   /* Run ending timestep number */
(PID.TID 0000.0001)                       4
(PID.TID 0000.0001)     ;
(PID.TID 0000.0001) baseTime =   /* Model base time ( s ) */
(PID.TID 0000.0001)                 0.000000000000000E+00
(PID.TID 0000.0001)     ;
(PID.TID 0000.0001) startTime =  /* Run start time ( s ) */
(PID.TID 0000.0001)                 0.000000000000000E+00
(PID.TID 0000.0001)     ;
(PID.TID 0000.0001) endTime  =   /* Integration ending time ( s ) */
(PID.TID 0000.0001)                 4.800000000000000E+03
(PID.TID 0000.0001)     ;
(PID.TID 0000.0001) pChkPtFreq = /* Permanent restart/pickup file interval ( s ) */
(PID.TID 0000.0001)                 3.153600000000000E+07
(PID.TID 0000.0001)     ;
(PID.TID 0000.0001) chkPtFreq  = /* Rolling restart/pickup file interval ( s ) */
(PID.TID 0000.0001)                 3.153600000000000E+07
(PID.TID 0000.0001)     ;
(PID.TID 0000.0001) pickup_write_mdsio =   /* Model IO flag. */
(PID.TID 0000.0001)                   T
(PID.TID 0000.0001)     ;
(PID.TID 0000.0001) pickup_read_mdsio =   /* Model IO flag. */
(PID.TID 0000.0001)                   T
(PID.TID 0000.0001)     ;
(PID.TID 0000.0001) writePickupAtEnd =   /* Model IO flag. */
(PID.TID 0000.0001)                   T
(PID.TID 0000.0001)     ;
(PID.TID 0000.0001) dumpFreq =   /* Model state write out interval ( s ). */
(PID.TID 0000.0001)                 0.000000000000000E+00
(PID.TID 0000.0001)     ;
(PID.TID 0000.0001) dumpInitAndLast= /* write out Initial & Last iter. model state */
(PID.TID 0000.0001)                   F
(PID.TID 0000.0001)     ;
(PID.TID 0000.0001) snapshot_mdsio =   /* Model IO flag. */
(PID.TID 0000.0001)                   T
(PID.TID 0000.0001)     ;
(PID.TID 0000.0001) monitorFreq =   /* Monitor output interval ( s ). */
(PID.TID 0000.0001)                 1.000000000000000E+00
(PID.TID 0000.0001)     ;
(PID.TID 0000.0001) monitorSelect = /* select group of variables to monitor */
(PID.TID 0000.0001)                       3
(PID.TID 0000.0001)     ;
(PID.TID 0000.0001) monitor_stdio =   /* Model IO flag. */
(PID.TID 0000.0001)                   T
(PID.TID 0000.0001)     ;
(PID.TID 0000.0001) externForcingPeriod =   /* forcing period (s) */
(PID.TID 0000.0001)                 2.592000000000000E+06
(PID.TID 0000.0001)     ;
(PID.TID 0000.0001) externForcingCycle =   /* period of the cyle (s). */
(PID.TID 0000.0001)                 3.110400000000000E+07
(PID.TID 0000.0001)     ;
(PID.TID 0000.0001) tauThetaClimRelax =   /* relaxation time scale (s) */
(PID.TID 0000.0001)                 0.000000000000000E+00
(PID.TID 0000.0001)     ;
(PID.TID 0000.0001) tauSaltClimRelax =   /* relaxation time scale (s) */
(PID.TID 0000.0001)                 0.000000000000000E+00
(PID.TID 0000.0001)     ;
(PID.TID 0000.0001) latBandClimRelax =   /* max. Lat. where relaxation */
(PID.TID 0000.0001)                 1.800000000000000E+02
(PID.TID 0000.0001)     ;
(PID.TID 0000.0001) //
(PID.TID 0000.0001) // Gridding paramters ( PARM04 in namelist )
(PID.TID 0000.0001) //
(PID.TID 0000.0001) usingCartesianGrid = /* Cartesian coordinates flag ( True/False ) */
(PID.TID 0000.0001)                   F
(PID.TID 0000.0001)     ;
(PID.TID 0000.0001) usingCylindricalGrid = /* Cylindrical coordinates flag ( True/False ) */
(PID.TID 0000.0001)                   F
(PID.TID 0000.0001)     ;
(PID.TID 0000.0001) usingSphericalPolarGrid = /* Spherical coordinates flag ( True/False ) */
(PID.TID 0000.0001)                   T
(PID.TID 0000.0001)     ;
(PID.TID 0000.0001) usingCurvilinearGrid = /* Curvilinear coordinates flag ( True/False ) */
(PID.TID 0000.0001)                   F
(PID.TID 0000.0001)     ;
(PID.TID 0000.0001) useMin4hFacEdges = /* set hFacW,S as minimum of adjacent hFacC factor */
(PID.TID 0000.0001)                   F
(PID.TID 0000.0001)     ;
(PID.TID 0000.0001) interViscAr_pCell = /* account for partial-cell in interior vert. viscosity */
(PID.TID 0000.0001)                   F
(PID.TID 0000.0001)     ;
(PID.TID 0000.0001) interDiffKr_pCell = /* account for partial-cell in interior vert. diffusion */
(PID.TID 0000.0001)                   F
(PID.TID 0000.0001)     ;
(PID.TID 0000.0001) pCellMix_select = /* option to enhance mixing near surface & bottom */
(PID.TID 0000.0001)                       0
(PID.TID 0000.0001)     ;
(PID.TID 0000.0001) selectSigmaCoord = /* Hybrid-Sigma Vert. Coordinate option */
(PID.TID 0000.0001)                       0
(PID.TID 0000.0001)     ;
(PID.TID 0000.0001) rSigmaBnd = /* r/sigma transition ( units of r ==  m ) */
(PID.TID 0000.0001)                 1.234567000000000E+05
(PID.TID 0000.0001)     ;
(PID.TID 0000.0001) rkSign =   /* index orientation relative to vertical coordinate */
(PID.TID 0000.0001)                -1.000000000000000E+00
(PID.TID 0000.0001)     ;
(PID.TID 0000.0001) gravitySign = /* gravity orientation relative to vertical coordinate */
(PID.TID 0000.0001)                -1.000000000000000E+00
(PID.TID 0000.0001)     ;
(PID.TID 0000.0001) seaLev_Z =  /* reference height of sea-level [m] */
(PID.TID 0000.0001)                 0.000000000000000E+00
(PID.TID 0000.0001)     ;
(PID.TID 0000.0001) top_Pres =  /* reference pressure at the top [Pa] */
(PID.TID 0000.0001)                 0.000000000000000E+00
(PID.TID 0000.0001)     ;
(PID.TID 0000.0001) mass2rUnit = /* convert mass per unit area [kg/m2] to r-units [m] */
(PID.TID 0000.0001)                 9.718172983479105E-04
(PID.TID 0000.0001)     ;
(PID.TID 0000.0001) rUnit2mass = /* convert r-units [m] to mass per unit area [kg/m2] */
(PID.TID 0000.0001)                 1.029000000000000E+03
(PID.TID 0000.0001)     ;
(PID.TID 0000.0001) drC =   /* C spacing ( units of r ) */
(PID.TID 0000.0001)                 2.500000000000000E+01,      /* K =  1 */
(PID.TID 0000.0001)                 6.000000000000000E+01,      /* K =  2 */
(PID.TID 0000.0001)                 8.500000000000000E+01,      /* K =  3 */
(PID.TID 0000.0001)                 1.200000000000000E+02,      /* K =  4 */
(PID.TID 0000.0001)                 1.650000000000000E+02,      /* K =  5 */
(PID.TID 0000.0001)                 2.150000000000000E+02,      /* K =  6 */
(PID.TID 0000.0001)                 2.650000000000000E+02,      /* K =  7 */
(PID.TID 0000.0001)                 3.150000000000000E+02,      /* K =  8 */
(PID.TID 0000.0001)                 3.650000000000000E+02,      /* K =  9 */
(PID.TID 0000.0001)                 4.150000000000000E+02,      /* K = 10 */
(PID.TID 0000.0001)                 4.650000000000000E+02,      /* K = 11 */
(PID.TID 0000.0001)                 5.150000000000000E+02,      /* K = 12 */
(PID.TID 0000.0001)                 5.650000000000000E+02,      /* K = 13 */
(PID.TID 0000.0001)                 6.150000000000000E+02,      /* K = 14 */
(PID.TID 0000.0001)                 6.650000000000000E+02,      /* K = 15 */
(PID.TID 0000.0001)                 3.450000000000000E+02       /* K = 16 */
(PID.TID 0000.0001)     ;
(PID.TID 0000.0001) drF =   /* W spacing ( units of r ) */
(PID.TID 0000.0001)                 5.000000000000000E+01,      /* K =  1 */
(PID.TID 0000.0001)                 7.000000000000000E+01,      /* K =  2 */
(PID.TID 0000.0001)                 1.000000000000000E+02,      /* K =  3 */
(PID.TID 0000.0001)                 1.400000000000000E+02,      /* K =  4 */
(PID.TID 0000.0001)                 1.900000000000000E+02,      /* K =  5 */
(PID.TID 0000.0001)                 2.400000000000000E+02,      /* K =  6 */
(PID.TID 0000.0001)                 2.900000000000000E+02,      /* K =  7 */
(PID.TID 0000.0001)                 3.400000000000000E+02,      /* K =  8 */
(PID.TID 0000.0001)                 3.900000000000000E+02,      /* K =  9 */
(PID.TID 0000.0001)                 4.400000000000000E+02,      /* K = 10 */
(PID.TID 0000.0001)                 4.900000000000000E+02,      /* K = 11 */
(PID.TID 0000.0001)                 5.400000000000000E+02,      /* K = 12 */
(PID.TID 0000.0001)                 5.900000000000000E+02,      /* K = 13 */
(PID.TID 0000.0001)                 6.400000000000000E+02,      /* K = 14 */
(PID.TID 0000.0001)                 6.900000000000000E+02       /* K = 15 */
(PID.TID 0000.0001)     ;
(PID.TID 0000.0001) delX = /* U spacing ( m - cartesian, degrees - spherical ) */
(PID.TID 0000.0001)   128 @  2.812500000000000E+00              /* I =  1:128 */
(PID.TID 0000.0001)     ;
(PID.TID 0000.0001) delY = /* V spacing ( m - cartesian, degrees - spherical ) */
(PID.TID 0000.0001)    64 @  2.812500000000000E+00              /* J =  1: 64 */
(PID.TID 0000.0001)     ;
(PID.TID 0000.0001) xgOrigin = /* X-axis origin of West  edge (cartesian: m, lat-lon: deg) */
(PID.TID 0000.0001)                 0.000000000000000E+00
(PID.TID 0000.0001)     ;
(PID.TID 0000.0001) ygOrigin = /* Y-axis origin of South edge (cartesian: m, lat-lon: deg) */
(PID.TID 0000.0001)                -9.000000000000000E+01
(PID.TID 0000.0001)     ;
(PID.TID 0000.0001) rSphere =  /* Radius ( ignored - cartesian, m - spherical ) */
(PID.TID 0000.0001)                 6.370000000000000E+06
(PID.TID 0000.0001)     ;
(PID.TID 0000.0001) deepAtmosphere = /* Deep/Shallow Atmosphere flag (True/False) */
(PID.TID 0000.0001)                   F
(PID.TID 0000.0001)     ;
(PID.TID 0000.0001) xC =  /* xC(:,1,:,1) : P-point X coord ( deg. or m if cartesian) */
(PID.TID 0000.0001)                 1.406250000000000E+00,      /* I =  1 */
(PID.TID 0000.0001)                 4.218750000000000E+00,      /* I =  2 */
(PID.TID 0000.0001)                 7.031250000000000E+00,      /* I =  3 */
(PID.TID 0000.0001)      . . .
(PID.TID 0000.0001)                 8.296875000000000E+01,      /* I = 30 */
(PID.TID 0000.0001)                 8.578125000000000E+01,      /* I = 31 */
(PID.TID 0000.0001)                 8.859375000000000E+01,      /* I = 32 */
(PID.TID 0000.0001)                 9.140625000000000E+01,      /* I = 33 */
(PID.TID 0000.0001)                 9.421875000000000E+01,      /* I = 34 */
(PID.TID 0000.0001)                 9.703125000000000E+01,      /* I = 35 */
(PID.TID 0000.0001)      . . .
(PID.TID 0000.0001)                 1.729687500000000E+02,      /* I = 62 */
(PID.TID 0000.0001)                 1.757812500000000E+02,      /* I = 63 */
(PID.TID 0000.0001)                 1.785937500000000E+02,      /* I = 64 */
(PID.TID 0000.0001)                 1.814062500000000E+02,      /* I = 65 */
(PID.TID 0000.0001)                 1.842187500000000E+02,      /* I = 66 */
(PID.TID 0000.0001)                 1.870312500000000E+02,      /* I = 67 */
(PID.TID 0000.0001)      . . .
(PID.TID 0000.0001)                 2.629687500000000E+02,      /* I = 94 */
(PID.TID 0000.0001)                 2.657812500000000E+02,      /* I = 95 */
(PID.TID 0000.0001)                 2.685937500000000E+02,      /* I = 96 */
(PID.TID 0000.0001)                 2.714062500000000E+02,      /* I = 97 */
(PID.TID 0000.0001)                 2.742187500000000E+02,      /* I = 98 */
(PID.TID 0000.0001)                 2.770312500000000E+02,      /* I = 99 */
(PID.TID 0000.0001)      . . .
(PID.TID 0000.0001)                 3.529687500000000E+02,      /* I =126 */
(PID.TID 0000.0001)                 3.557812500000000E+02,      /* I =127 */
(PID.TID 0000.0001)                 3.585937500000000E+02       /* I =128 */
(PID.TID 0000.0001)     ;
(PID.TID 0000.0001) yC =  /* yC(1,:,1,:) : P-point Y coord ( deg. or m if cartesian) */
(PID.TID 0000.0001)                -8.859375000000000E+01,      /* J =  1 */
(PID.TID 0000.0001)                -8.578125000000000E+01,      /* J =  2 */
(PID.TID 0000.0001)                -8.296875000000000E+01,      /* J =  3 */
(PID.TID 0000.0001)                -8.015625000000000E+01,      /* J =  4 */
(PID.TID 0000.0001)                -7.734375000000000E+01,      /* J =  5 */
(PID.TID 0000.0001)                -7.453125000000000E+01,      /* J =  6 */
(PID.TID 0000.0001)                -7.171875000000000E+01,      /* J =  7 */
(PID.TID 0000.0001)                -6.890625000000000E+01,      /* J =  8 */
(PID.TID 0000.0001)                -6.609375000000000E+01,      /* J =  9 */
(PID.TID 0000.0001)                -6.328125000000000E+01,      /* J = 10 */
(PID.TID 0000.0001)                -6.046875000000000E+01,      /* J = 11 */
(PID.TID 0000.0001)                -5.765625000000000E+01,      /* J = 12 */
(PID.TID 0000.0001)                -5.484375000000000E+01,      /* J = 13 */
(PID.TID 0000.0001)                -5.203125000000000E+01,      /* J = 14 */
(PID.TID 0000.0001)                -4.921875000000000E+01,      /* J = 15 */
(PID.TID 0000.0001)                -4.640625000000000E+01,      /* J = 16 */
(PID.TID 0000.0001)                -4.359375000000000E+01,      /* J = 17 */
(PID.TID 0000.0001)                -4.078125000000000E+01,      /* J = 18 */
(PID.TID 0000.0001)                -3.796875000000000E+01,      /* J = 19 */
(PID.TID 0000.0001)                -3.515625000000000E+01,      /* J = 20 */
(PID.TID 0000.0001)                -3.234375000000000E+01,      /* J = 21 */
(PID.TID 0000.0001)                -2.953125000000000E+01,      /* J = 22 */
(PID.TID 0000.0001)                -2.671875000000000E+01,      /* J = 23 */
(PID.TID 0000.0001)                -2.390625000000000E+01,      /* J = 24 */
(PID.TID 0000.0001)                -2.109375000000000E+01,      /* J = 25 */
(PID.TID 0000.0001)                -1.828125000000000E+01,      /* J = 26 */
(PID.TID 0000.0001)                -1.546875000000000E+01,      /* J = 27 */
(PID.TID 0000.0001)                -1.265625000000000E+01,      /* J = 28 */
(PID.TID 0000.0001)                -9.843750000000000E+00,      /* J = 29 */
(PID.TID 0000.0001)                -7.031250000000000E+00,      /* J = 30 */
(PID.TID 0000.0001)                -4.218750000000000E+00,      /* J = 31 */
(PID.TID 0000.0001)                -1.406250000000000E+00,      /* J = 32 */
(PID.TID 0000.0001)                 1.406250000000000E+00,      /* J = 33 */
(PID.TID 0000.0001)                 4.218750000000000E+00,      /* J = 34 */
(PID.TID 0000.0001)                 7.031250000000000E+00,      /* J = 35 */
(PID.TID 0000.0001)                 9.843750000000000E+00,      /* J = 36 */
(PID.TID 0000.0001)                 1.265625000000000E+01,      /* J = 37 */
(PID.TID 0000.0001)                 1.546875000000000E+01,      /* J = 38 */
(PID.TID 0000.0001)                 1.828125000000000E+01,      /* J = 39 */
(PID.TID 0000.0001)                 2.109375000000000E+01,      /* J = 40 */
(PID.TID 0000.0001)                 2.390625000000000E+01,      /* J = 41 */
(PID.TID 0000.0001)                 2.671875000000000E+01,      /* J = 42 */
(PID.TID 0000.0001)                 2.953125000000000E+01,      /* J = 43 */
(PID.TID 0000.0001)                 3.234375000000000E+01,      /* J = 44 */
(PID.TID 0000.0001)                 3.515625000000000E+01,      /* J = 45 */
(PID.TID 0000.0001)                 3.796875000000000E+01,      /* J = 46 */
(PID.TID 0000.0001)                 4.078125000000000E+01,      /* J = 47 */
(PID.TID 0000.0001)                 4.359375000000000E+01,      /* J = 48 */
(PID.TID 0000.0001)                 4.640625000000000E+01,      /* J = 49 */
(PID.TID 0000.0001)                 4.921875000000000E+01,      /* J = 50 */
(PID.TID 0000.0001)                 5.203125000000000E+01,      /* J = 51 */
(PID.TID 0000.0001)                 5.484375000000000E+01,      /* J = 52 */
(PID.TID 0000.0001)                 5.765625000000000E+01,      /* J = 53 */
(PID.TID 0000.0001)                 6.046875000000000E+01,      /* J = 54 */
(PID.TID 0000.0001)                 6.328125000000000E+01,      /* J = 55 */
(PID.TID 0000.0001)                 6.609375000000000E+01,      /* J = 56 */
(PID.TID 0000.0001)                 6.890625000000000E+01,      /* J = 57 */
(PID.TID 0000.0001)                 7.171875000000000E+01,      /* J = 58 */
(PID.TID 0000.0001)                 7.453125000000000E+01,      /* J = 59 */
(PID.TID 0000.0001)                 7.734375000000000E+01,      /* J = 60 */
(PID.TID 0000.0001)                 8.015625000000000E+01,      /* J = 61 */
(PID.TID 0000.0001)                 8.296875000000000E+01,      /* J = 62 */
(PID.TID 0000.0001)                 8.578125000000000E+01,      /* J = 63 */
(PID.TID 0000.0001)                 8.859375000000000E+01       /* J = 64 */
(PID.TID 0000.0001)     ;
(PID.TID 0000.0001) rcoord = /* P-point R coordinate (  units of r ) */
(PID.TID 0000.0001)                -2.500000000000000E+01,      /* K =  1 */
(PID.TID 0000.0001)                -8.500000000000000E+01,      /* K =  2 */
(PID.TID 0000.0001)                -1.700000000000000E+02,      /* K =  3 */
(PID.TID 0000.0001)                -2.900000000000000E+02,      /* K =  4 */
(PID.TID 0000.0001)                -4.550000000000000E+02,      /* K =  5 */
(PID.TID 0000.0001)                -6.700000000000000E+02,      /* K =  6 */
(PID.TID 0000.0001)                -9.350000000000000E+02,      /* K =  7 */
(PID.TID 0000.0001)                -1.250000000000000E+03,      /* K =  8 */
(PID.TID 0000.0001)                -1.615000000000000E+03,      /* K =  9 */
(PID.TID 0000.0001)                -2.030000000000000E+03,      /* K = 10 */
(PID.TID 0000.0001)                -2.495000000000000E+03,      /* K = 11 */
(PID.TID 0000.0001)                -3.010000000000000E+03,      /* K = 12 */
(PID.TID 0000.0001)                -3.575000000000000E+03,      /* K = 13 */
(PID.TID 0000.0001)                -4.190000000000000E+03,      /* K = 14 */
(PID.TID 0000.0001)                -4.855000000000000E+03       /* K = 15 */
(PID.TID 0000.0001)     ;
(PID.TID 0000.0001) rF =   /* W-Interf. R coordinate (  units of r ) */
(PID.TID 0000.0001)                 0.000000000000000E+00,      /* K =  1 */
(PID.TID 0000.0001)                -5.000000000000000E+01,      /* K =  2 */
(PID.TID 0000.0001)                -1.200000000000000E+02,      /* K =  3 */
(PID.TID 0000.0001)                -2.200000000000000E+02,      /* K =  4 */
(PID.TID 0000.0001)                -3.600000000000000E+02,      /* K =  5 */
(PID.TID 0000.0001)                -5.500000000000000E+02,      /* K =  6 */
(PID.TID 0000.0001)                -7.900000000000000E+02,      /* K =  7 */
(PID.TID 0000.0001)                -1.080000000000000E+03,      /* K =  8 */
(PID.TID 0000.0001)                -1.420000000000000E+03,      /* K =  9 */
(PID.TID 0000.0001)                -1.810000000000000E+03,      /* K = 10 */
(PID.TID 0000.0001)                -2.250000000000000E+03,      /* K = 11 */
(PID.TID 0000.0001)                -2.740000000000000E+03,      /* K = 12 */
(PID.TID 0000.0001)                -3.280000000000000E+03,      /* K = 13 */
(PID.TID 0000.0001)                -3.870000000000000E+03,      /* K = 14 */
(PID.TID 0000.0001)                -4.510000000000000E+03,      /* K = 15 */
(PID.TID 0000.0001)                -5.200000000000000E+03       /* K = 16 */
(PID.TID 0000.0001)     ;
(PID.TID 0000.0001) deepFacC = /* deep-model grid factor @ cell-Center (-) */
(PID.TID 0000.0001)    15 @  1.000000000000000E+00              /* K =  1: 15 */
(PID.TID 0000.0001)     ;
(PID.TID 0000.0001) deepFacF = /* deep-model grid factor @ W-Interface (-) */
(PID.TID 0000.0001)    16 @  1.000000000000000E+00              /* K =  1: 16 */
(PID.TID 0000.0001)     ;
(PID.TID 0000.0001) rVel2wUnit = /* convert units: rVel -> wSpeed (=1 if z-coord)*/
(PID.TID 0000.0001)    16 @  1.000000000000000E+00              /* K =  1: 16 */
(PID.TID 0000.0001)     ;
(PID.TID 0000.0001) wUnit2rVel = /* convert units: wSpeed -> rVel (=1 if z-coord)*/
(PID.TID 0000.0001)    16 @  1.000000000000000E+00              /* K =  1: 16 */
(PID.TID 0000.0001)     ;
(PID.TID 0000.0001) dBdrRef = /* Vertical grad. of reference buoyancy [(m/s/r)^2] */
(PID.TID 0000.0001)    15 @  0.000000000000000E+00              /* K =  1: 15 */
(PID.TID 0000.0001)     ;
(PID.TID 0000.0001) rotateGrid = /* use rotated grid ( True/False ) */
(PID.TID 0000.0001)                   F
(PID.TID 0000.0001)     ;
(PID.TID 0000.0001) phiEuler = /* Euler angle, rotation about original z-coordinate [rad] */
(PID.TID 0000.0001)                 0.000000000000000E+00
(PID.TID 0000.0001)     ;
(PID.TID 0000.0001) thetaEuler = /* Euler angle, rotation about new x-coordinate [rad] */
(PID.TID 0000.0001)                 0.000000000000000E+00
(PID.TID 0000.0001)     ;
(PID.TID 0000.0001) psiEuler = /* Euler angle, rotation about new z-coordinate [rad] */
(PID.TID 0000.0001)                 0.000000000000000E+00
(PID.TID 0000.0001)     ;
(PID.TID 0000.0001) dxF =  /* dxF(:,1,:,1) ( units: m ) */
(PID.TID 0000.0001)   128 @  7.673714381622299E+03              /* I =  1:128 */
(PID.TID 0000.0001)     ;
(PID.TID 0000.0001) dxF =  /* dxF(1,:,1,:) ( units: m ) */
(PID.TID 0000.0001)                 7.673714381622299E+03,      /* J =  1 */
(PID.TID 0000.0001)                 2.300265649478360E+04,      /* J =  2 */
(PID.TID 0000.0001)                 3.827618319365421E+04,      /* J =  3 */
(PID.TID 0000.0001)                 5.345749921461356E+04,      /* J =  4 */
(PID.TID 0000.0001)                 6.851003143764105E+04,      /* J =  5 */
(PID.TID 0000.0001)                 8.339751699416524E+04,      /* J =  6 */
(PID.TID 0000.0001)                 9.808409062749069E+04,      /* J =  7 */
(PID.TID 0000.0001)                 1.125343710953429E+05,      /* J =  8 */
(PID.TID 0000.0001)                 1.267135464063795E+05,      /* J =  9 */
(PID.TID 0000.0001)                 1.405874576853274E+05,      /* J = 10 */
(PID.TID 0000.0001)                 1.541226814647045E+05,      /* J = 11 */
(PID.TID 0000.0001)                 1.672866102048805E+05,      /* J = 12 */
(PID.TID 0000.0001)                 1.800475308484964E+05,      /* J = 13 */
(PID.TID 0000.0001)                 1.923747012199971E+05,      /* J = 14 */
(PID.TID 0000.0001)                 2.042384240862252E+05,      /* J = 15 */
(PID.TID 0000.0001)                 2.156101186996563E+05,      /* J = 16 */
(PID.TID 0000.0001)                 2.264623896519241E+05,      /* J = 17 */
(PID.TID 0000.0001)                 2.367690928717577E+05,      /* J = 18 */
(PID.TID 0000.0001)                 2.465053986083400E+05,      /* J = 19 */
(PID.TID 0000.0001)                 2.556478512483520E+05,      /* J = 20 */
(PID.TID 0000.0001)                 2.641744258225996E+05,      /* J = 21 */
(PID.TID 0000.0001)                 2.720645810660936E+05,      /* J = 22 */
(PID.TID 0000.0001)                 2.792993089037565E+05,      /* J = 23 */
(PID.TID 0000.0001)                 2.858611802425402E+05,      /* J = 24 */
(PID.TID 0000.0001)                 2.917343869596373E+05,      /* J = 25 */
(PID.TID 0000.0001)                 2.969047799856344E+05,      /* J = 26 */
(PID.TID 0000.0001)                 3.013599033908587E+05,      /* J = 27 */
(PID.TID 0000.0001)                 3.050890243928043E+05,      /* J = 28 */
(PID.TID 0000.0001)                 3.080831592123453E+05,      /* J = 29 */
(PID.TID 0000.0001)                 3.103350947164461E+05,      /* J = 30 */
(PID.TID 0000.0001)                 3.118394057952309E+05,      /* J = 31 */
(PID.TID 0000.0001)     2 @  3.125924684315491E+05,             /* J = 32: 33 */
(PID.TID 0000.0001)                 3.118394057952309E+05,      /* J = 34 */
(PID.TID 0000.0001)                 3.103350947164461E+05,      /* J = 35 */
(PID.TID 0000.0001)                 3.080831592123453E+05,      /* J = 36 */
(PID.TID 0000.0001)                 3.050890243928043E+05,      /* J = 37 */
(PID.TID 0000.0001)                 3.013599033908587E+05,      /* J = 38 */
(PID.TID 0000.0001)                 2.969047799856344E+05,      /* J = 39 */
(PID.TID 0000.0001)                 2.917343869596373E+05,      /* J = 40 */
(PID.TID 0000.0001)                 2.858611802425402E+05,      /* J = 41 */
(PID.TID 0000.0001)                 2.792993089037565E+05,      /* J = 42 */
(PID.TID 0000.0001)                 2.720645810660936E+05,      /* J = 43 */
(PID.TID 0000.0001)                 2.641744258225996E+05,      /* J = 44 */
(PID.TID 0000.0001)                 2.556478512483520E+05,      /* J = 45 */
(PID.TID 0000.0001)                 2.465053986083400E+05,      /* J = 46 */
(PID.TID 0000.0001)                 2.367690928717577E+05,      /* J = 47 */
(PID.TID 0000.0001)                 2.264623896519241E+05,      /* J = 48 */
(PID.TID 0000.0001)                 2.156101186996563E+05,      /* J = 49 */
(PID.TID 0000.0001)                 2.042384240862252E+05,      /* J = 50 */
(PID.TID 0000.0001)                 1.923747012199971E+05,      /* J = 51 */
(PID.TID 0000.0001)                 1.800475308484964E+05,      /* J = 52 */
(PID.TID 0000.0001)                 1.672866102048805E+05,      /* J = 53 */
(PID.TID 0000.0001)                 1.541226814647045E+05,      /* J = 54 */
(PID.TID 0000.0001)                 1.405874576853274E+05,      /* J = 55 */
(PID.TID 0000.0001)                 1.267135464063795E+05,      /* J = 56 */
(PID.TID 0000.0001)                 1.125343710953429E+05,      /* J = 57 */
(PID.TID 0000.0001)                 9.808409062749069E+04,      /* J = 58 */
(PID.TID 0000.0001)                 8.339751699416524E+04,      /* J = 59 */
(PID.TID 0000.0001)                 6.851003143764105E+04,      /* J = 60 */
(PID.TID 0000.0001)                 5.345749921461356E+04,      /* J = 61 */
(PID.TID 0000.0001)                 3.827618319365421E+04,      /* J = 62 */
(PID.TID 0000.0001)                 2.300265649478360E+04,      /* J = 63 */
(PID.TID 0000.0001)                 7.673714381622299E+03       /* J = 64 */
(PID.TID 0000.0001)     ;
(PID.TID 0000.0001) dyF =  /* dyF(:,1,:,1) ( units: m ) */
(PID.TID 0000.0001)   128 @  3.126866438026091E+05              /* I =  1:128 */
(PID.TID 0000.0001)     ;
(PID.TID 0000.0001) dyF =  /* dyF(1,:,1,:) ( units: m ) */
(PID.TID 0000.0001)    64 @  3.126866438026091E+05              /* J =  1: 64 */
(PID.TID 0000.0001)     ;
(PID.TID 0000.0001) dxG =  /* dxG(:,1,:,1) ( units: m ) */
(PID.TID 0000.0001)   128 @  0.000000000000000E+00              /* I =  1:128 */
(PID.TID 0000.0001)     ;
(PID.TID 0000.0001) dxG =  /* dxG(1,:,1,:) ( units: m ) */
(PID.TID 0000.0001)                 0.000000000000000E+00,      /* J =  1 */
(PID.TID 0000.0001)                 1.534280640463982E+04,      /* J =  2 */
(PID.TID 0000.0001)                 3.064865064477965E+04,      /* J =  3 */
(PID.TID 0000.0001)                 4.588065960101153E+04,      /* J =  4 */
(PID.TID 0000.0001)                 6.100213802959342E+04,      /* J =  5 */
(PID.TID 0000.0001)                 7.597665696450579E+04,      /* J =  6 */
(PID.TID 0000.0001)                 9.076814147802138E+04,      /* J =  7 */
(PID.TID 0000.0001)                 1.053409575883663E+05,      /* J =  8 */
(PID.TID 0000.0001)                 1.196599981051027E+05,      /* J =  9 */
(PID.TID 0000.0001)                 1.336907672054259E+05,      /* J = 10 */
(PID.TID 0000.0001)                 1.473994635376230E+05,      /* J = 11 */
(PID.TID 0000.0001)                 1.607530616514898E+05,      /* J = 12 */
(PID.TID 0000.0001)                 1.737193915595329E+05,      /* J = 13 */
(PID.TID 0000.0001)                 1.862672162372875E+05,      /* J = 14 */
(PID.TID 0000.0001)                 1.983663068760452E+05,      /* J = 15 */
(PID.TID 0000.0001)                 2.099875157067021E+05,      /* J = 16 */
(PID.TID 0000.0001)                 2.211028462192875E+05,      /* J = 17 */
(PID.TID 0000.0001)                 2.316855206090084E+05,      /* J = 18 */
(PID.TID 0000.0001)                 2.417100442863276E+05,      /* J = 19 */
(PID.TID 0000.0001)                 2.511522672956614E+05,      /* J = 20 */
(PID.TID 0000.0001)                 2.599894424947394E+05,      /* J = 21 */
(PID.TID 0000.0001)                 2.682002803544621E+05,      /* J = 22 */
(PID.TID 0000.0001)                 2.757650002472408E+05,      /* J = 23 */
(PID.TID 0000.0001)                 2.826653781002625E+05,      /* J = 24 */
(PID.TID 0000.0001)                 2.888847902988777E+05,      /* J = 25 */
(PID.TID 0000.0001)                 2.944082537343438E+05,      /* J = 26 */
(PID.TID 0000.0001)                 2.992224618994463E+05,      /* J = 27 */
(PID.TID 0000.0001)                 3.033158169450409E+05,      /* J = 28 */
(PID.TID 0000.0001)                 3.066784576202870E+05,      /* J = 29 */
(PID.TID 0000.0001)                 3.093022830292655E+05,      /* J = 30 */
(PID.TID 0000.0001)                 3.111809721467461E+05,      /* J = 31 */
(PID.TID 0000.0001)                 3.123099990460912E+05,      /* J = 32 */
(PID.TID 0000.0001)                 3.126866438026091E+05,      /* J = 33 */
(PID.TID 0000.0001)                 3.123099990460912E+05,      /* J = 34 */
(PID.TID 0000.0001)                 3.111809721467461E+05,      /* J = 35 */
(PID.TID 0000.0001)                 3.093022830292655E+05,      /* J = 36 */
(PID.TID 0000.0001)                 3.066784576202870E+05,      /* J = 37 */
(PID.TID 0000.0001)                 3.033158169450409E+05,      /* J = 38 */
(PID.TID 0000.0001)                 2.992224618994463E+05,      /* J = 39 */
(PID.TID 0000.0001)                 2.944082537343438E+05,      /* J = 40 */
(PID.TID 0000.0001)                 2.888847902988777E+05,      /* J = 41 */
(PID.TID 0000.0001)                 2.826653781002625E+05,      /* J = 42 */
(PID.TID 0000.0001)                 2.757650002472408E+05,      /* J = 43 */
(PID.TID 0000.0001)                 2.682002803544621E+05,      /* J = 44 */
(PID.TID 0000.0001)                 2.599894424947394E+05,      /* J = 45 */
(PID.TID 0000.0001)                 2.511522672956614E+05,      /* J = 46 */
(PID.TID 0000.0001)                 2.417100442863276E+05,      /* J = 47 */
(PID.TID 0000.0001)                 2.316855206090084E+05,      /* J = 48 */
(PID.TID 0000.0001)                 2.211028462192875E+05,      /* J = 49 */
(PID.TID 0000.0001)                 2.099875157067021E+05,      /* J = 50 */
(PID.TID 0000.0001)                 1.983663068760452E+05,      /* J = 51 */
(PID.TID 0000.0001)                 1.862672162372875E+05,      /* J = 52 */
(PID.TID 0000.0001)                 1.737193915595329E+05,      /* J = 53 */
(PID.TID 0000.0001)                 1.607530616514898E+05,      /* J = 54 */
(PID.TID 0000.0001)                 1.473994635376230E+05,      /* J = 55 */
(PID.TID 0000.0001)                 1.336907672054259E+05,      /* J = 56 */
(PID.TID 0000.0001)                 1.196599981051027E+05,      /* J = 57 */
(PID.TID 0000.0001)                 1.053409575883663E+05,      /* J = 58 */
(PID.TID 0000.0001)                 9.076814147802138E+04,      /* J = 59 */
(PID.TID 0000.0001)                 7.597665696450579E+04,      /* J = 60 */
(PID.TID 0000.0001)                 6.100213802959342E+04,      /* J = 61 */
(PID.TID 0000.0001)                 4.588065960101153E+04,      /* J = 62 */
(PID.TID 0000.0001)                 3.064865064477965E+04,      /* J = 63 */
(PID.TID 0000.0001)                 1.534280640463982E+04       /* J = 64 */
(PID.TID 0000.0001)     ;
(PID.TID 0000.0001) dyG =  /* dyG(:,1,:,1) ( units: m ) */
(PID.TID 0000.0001)   128 @  3.126866438026091E+05              /* I =  1:128 */
(PID.TID 0000.0001)     ;
(PID.TID 0000.0001) dyG =  /* dyG(1,:,1,:) ( units: m ) */
(PID.TID 0000.0001)    64 @  3.126866438026091E+05              /* J =  1: 64 */
(PID.TID 0000.0001)     ;
(PID.TID 0000.0001) dxC =  /* dxC(:,1,:,1) ( units: m ) */
(PID.TID 0000.0001)   128 @  7.673714381622299E+03              /* I =  1:128 */
(PID.TID 0000.0001)     ;
(PID.TID 0000.0001) dxC =  /* dxC(1,:,1,:) ( units: m ) */
(PID.TID 0000.0001)                 7.673714381622299E+03,      /* J =  1 */
(PID.TID 0000.0001)                 2.300265649478360E+04,      /* J =  2 */
(PID.TID 0000.0001)                 3.827618319365421E+04,      /* J =  3 */
(PID.TID 0000.0001)                 5.345749921461356E+04,      /* J =  4 */
(PID.TID 0000.0001)                 6.851003143764105E+04,      /* J =  5 */
(PID.TID 0000.0001)                 8.339751699416524E+04,      /* J =  6 */
(PID.TID 0000.0001)                 9.808409062749069E+04,      /* J =  7 */
(PID.TID 0000.0001)                 1.125343710953429E+05,      /* J =  8 */
(PID.TID 0000.0001)                 1.267135464063795E+05,      /* J =  9 */
(PID.TID 0000.0001)                 1.405874576853274E+05,      /* J = 10 */
(PID.TID 0000.0001)                 1.541226814647045E+05,      /* J = 11 */
(PID.TID 0000.0001)                 1.672866102048805E+05,      /* J = 12 */
(PID.TID 0000.0001)                 1.800475308484964E+05,      /* J = 13 */
(PID.TID 0000.0001)                 1.923747012199971E+05,      /* J = 14 */
(PID.TID 0000.0001)                 2.042384240862252E+05,      /* J = 15 */
(PID.TID 0000.0001)                 2.156101186996563E+05,      /* J = 16 */
(PID.TID 0000.0001)                 2.264623896519241E+05,      /* J = 17 */
(PID.TID 0000.0001)                 2.367690928717577E+05,      /* J = 18 */
(PID.TID 0000.0001)                 2.465053986083400E+05,      /* J = 19 */
(PID.TID 0000.0001)                 2.556478512483520E+05,      /* J = 20 */
(PID.TID 0000.0001)                 2.641744258225996E+05,      /* J = 21 */
(PID.TID 0000.0001)                 2.720645810660936E+05,      /* J = 22 */
(PID.TID 0000.0001)                 2.792993089037565E+05,      /* J = 23 */
(PID.TID 0000.0001)                 2.858611802425402E+05,      /* J = 24 */
(PID.TID 0000.0001)                 2.917343869596373E+05,      /* J = 25 */
(PID.TID 0000.0001)                 2.969047799856344E+05,      /* J = 26 */
(PID.TID 0000.0001)                 3.013599033908587E+05,      /* J = 27 */
(PID.TID 0000.0001)                 3.050890243928043E+05,      /* J = 28 */
(PID.TID 0000.0001)                 3.080831592123453E+05,      /* J = 29 */
(PID.TID 0000.0001)                 3.103350947164461E+05,      /* J = 30 */
(PID.TID 0000.0001)                 3.118394057952309E+05,      /* J = 31 */
(PID.TID 0000.0001)     2 @  3.125924684315491E+05,             /* J = 32: 33 */
(PID.TID 0000.0001)                 3.118394057952309E+05,      /* J = 34 */
(PID.TID 0000.0001)                 3.103350947164461E+05,      /* J = 35 */
(PID.TID 0000.0001)                 3.080831592123453E+05,      /* J = 36 */
(PID.TID 0000.0001)                 3.050890243928043E+05,      /* J = 37 */
(PID.TID 0000.0001)                 3.013599033908587E+05,      /* J = 38 */
(PID.TID 0000.0001)                 2.969047799856344E+05,      /* J = 39 */
(PID.TID 0000.0001)                 2.917343869596373E+05,      /* J = 40 */
(PID.TID 0000.0001)                 2.858611802425402E+05,      /* J = 41 */
(PID.TID 0000.0001)                 2.792993089037565E+05,      /* J = 42 */
(PID.TID 0000.0001)                 2.720645810660936E+05,      /* J = 43 */
(PID.TID 0000.0001)                 2.641744258225996E+05,      /* J = 44 */
(PID.TID 0000.0001)                 2.556478512483520E+05,      /* J = 45 */
(PID.TID 0000.0001)                 2.465053986083400E+05,      /* J = 46 */
(PID.TID 0000.0001)                 2.367690928717577E+05,      /* J = 47 */
(PID.TID 0000.0001)                 2.264623896519241E+05,      /* J = 48 */
(PID.TID 0000.0001)                 2.156101186996563E+05,      /* J = 49 */
(PID.TID 0000.0001)                 2.042384240862252E+05,      /* J = 50 */
(PID.TID 0000.0001)                 1.923747012199971E+05,      /* J = 51 */
(PID.TID 0000.0001)                 1.800475308484964E+05,      /* J = 52 */
(PID.TID 0000.0001)                 1.672866102048805E+05,      /* J = 53 */
(PID.TID 0000.0001)                 1.541226814647045E+05,      /* J = 54 */
(PID.TID 0000.0001)                 1.405874576853274E+05,      /* J = 55 */
(PID.TID 0000.0001)                 1.267135464063795E+05,      /* J = 56 */
(PID.TID 0000.0001)                 1.125343710953429E+05,      /* J = 57 */
(PID.TID 0000.0001)                 9.808409062749069E+04,      /* J = 58 */
(PID.TID 0000.0001)                 8.339751699416524E+04,      /* J = 59 */
(PID.TID 0000.0001)                 6.851003143764105E+04,      /* J = 60 */
(PID.TID 0000.0001)                 5.345749921461356E+04,      /* J = 61 */
(PID.TID 0000.0001)                 3.827618319365421E+04,      /* J = 62 */
(PID.TID 0000.0001)                 2.300265649478360E+04,      /* J = 63 */
(PID.TID 0000.0001)                 7.673714381622299E+03       /* J = 64 */
(PID.TID 0000.0001)     ;
(PID.TID 0000.0001) dyC =  /* dyC(:,1,:,1) ( units: m ) */
(PID.TID 0000.0001)   128 @  3.126866438026091E+05              /* I =  1:128 */
(PID.TID 0000.0001)     ;
(PID.TID 0000.0001) dyC =  /* dyC(1,:,1,:) ( units: m ) */
(PID.TID 0000.0001)    64 @  3.126866438026091E+05              /* J =  1: 64 */
(PID.TID 0000.0001)     ;
(PID.TID 0000.0001) dxV =  /* dxV(:,1,:,1) ( units: m ) */
(PID.TID 0000.0001)   128 @  0.000000000000000E+00              /* I =  1:128 */
(PID.TID 0000.0001)     ;
(PID.TID 0000.0001) dxV =  /* dxV(1,:,1,:) ( units: m ) */
(PID.TID 0000.0001)                 0.000000000000000E+00,      /* J =  1 */
(PID.TID 0000.0001)                 1.534280640463982E+04,      /* J =  2 */
(PID.TID 0000.0001)                 3.064865064477965E+04,      /* J =  3 */
(PID.TID 0000.0001)                 4.588065960101153E+04,      /* J =  4 */
(PID.TID 0000.0001)                 6.100213802959342E+04,      /* J =  5 */
(PID.TID 0000.0001)                 7.597665696450579E+04,      /* J =  6 */
(PID.TID 0000.0001)                 9.076814147802138E+04,      /* J =  7 */
(PID.TID 0000.0001)                 1.053409575883663E+05,      /* J =  8 */
(PID.TID 0000.0001)                 1.196599981051027E+05,      /* J =  9 */
(PID.TID 0000.0001)                 1.336907672054259E+05,      /* J = 10 */
(PID.TID 0000.0001)                 1.473994635376230E+05,      /* J = 11 */
(PID.TID 0000.0001)                 1.607530616514898E+05,      /* J = 12 */
(PID.TID 0000.0001)                 1.737193915595329E+05,      /* J = 13 */
(PID.TID 0000.0001)                 1.862672162372875E+05,      /* J = 14 */
(PID.TID 0000.0001)                 1.983663068760452E+05,      /* J = 15 */
(PID.TID 0000.0001)                 2.099875157067021E+05,      /* J = 16 */
(PID.TID 0000.0001)                 2.211028462192875E+05,      /* J = 17 */
(PID.TID 0000.0001)                 2.316855206090084E+05,      /* J = 18 */
(PID.TID 0000.0001)                 2.417100442863276E+05,      /* J = 19 */
(PID.TID 0000.0001)                 2.511522672956614E+05,      /* J = 20 */
(PID.TID 0000.0001)                 2.599894424947394E+05,      /* J = 21 */
(PID.TID 0000.0001)                 2.682002803544621E+05,      /* J = 22 */
(PID.TID 0000.0001)                 2.757650002472408E+05,      /* J = 23 */
(PID.TID 0000.0001)                 2.826653781002625E+05,      /* J = 24 */
(PID.TID 0000.0001)                 2.888847902988777E+05,      /* J = 25 */
(PID.TID 0000.0001)                 2.944082537343438E+05,      /* J = 26 */
(PID.TID 0000.0001)                 2.992224618994463E+05,      /* J = 27 */
(PID.TID 0000.0001)                 3.033158169450409E+05,      /* J = 28 */
(PID.TID 0000.0001)                 3.066784576202870E+05,      /* J = 29 */
(PID.TID 0000.0001)                 3.093022830292655E+05,      /* J = 30 */
(PID.TID 0000.0001)                 3.111809721467461E+05,      /* J = 31 */
(PID.TID 0000.0001)                 3.123099990460912E+05,      /* J = 32 */
(PID.TID 0000.0001)                 3.126866438026091E+05,      /* J = 33 */
(PID.TID 0000.0001)                 3.123099990460912E+05,      /* J = 34 */
(PID.TID 0000.0001)                 3.111809721467461E+05,      /* J = 35 */
(PID.TID 0000.0001)                 3.093022830292655E+05,      /* J = 36 */
(PID.TID 0000.0001)                 3.066784576202870E+05,      /* J = 37 */
(PID.TID 0000.0001)                 3.033158169450409E+05,      /* J = 38 */
(PID.TID 0000.0001)                 2.992224618994463E+05,      /* J = 39 */
(PID.TID 0000.0001)                 2.944082537343438E+05,      /* J = 40 */
(PID.TID 0000.0001)                 2.888847902988777E+05,      /* J = 41 */
(PID.TID 0000.0001)                 2.826653781002625E+05,      /* J = 42 */
(PID.TID 0000.0001)                 2.757650002472408E+05,      /* J = 43 */
(PID.TID 0000.0001)                 2.682002803544621E+05,      /* J = 44 */
(PID.TID 0000.0001)                 2.599894424947394E+05,      /* J = 45 */
(PID.TID 0000.0001)                 2.511522672956614E+05,      /* J = 46 */
(PID.TID 0000.0001)                 2.417100442863276E+05,      /* J = 47 */
(PID.TID 0000.0001)                 2.316855206090084E+05,      /* J = 48 */
(PID.TID 0000.0001)                 2.211028462192875E+05,      /* J = 49 */
(PID.TID 0000.0001)                 2.099875157067021E+05,      /* J = 50 */
(PID.TID 0000.0001)                 1.983663068760452E+05,      /* J = 51 */
(PID.TID 0000.0001)                 1.862672162372875E+05,      /* J = 52 */
(PID.TID 0000.0001)                 1.737193915595329E+05,      /* J = 53 */
(PID.TID 0000.0001)                 1.607530616514898E+05,      /* J = 54 */
(PID.TID 0000.0001)                 1.473994635376230E+05,      /* J = 55 */
(PID.TID 0000.0001)                 1.336907672054259E+05,      /* J = 56 */
(PID.TID 0000.0001)                 1.196599981051027E+05,      /* J = 57 */
(PID.TID 0000.0001)                 1.053409575883663E+05,      /* J = 58 */
(PID.TID 0000.0001)                 9.076814147802138E+04,      /* J = 59 */
(PID.TID 0000.0001)                 7.597665696450579E+04,      /* J = 60 */
(PID.TID 0000.0001)                 6.100213802959342E+04,      /* J = 61 */
(PID.TID 0000.0001)                 4.588065960101153E+04,      /* J = 62 */
(PID.TID 0000.0001)                 3.064865064477965E+04,      /* J = 63 */
(PID.TID 0000.0001)                 1.534280640463982E+04       /* J = 64 */
(PID.TID 0000.0001)     ;
(PID.TID 0000.0001) dyU =  /* dyU(:,1,:,1) ( units: m ) */
(PID.TID 0000.0001)   128 @  3.126866438026091E+05              /* I =  1:128 */
(PID.TID 0000.0001)     ;
(PID.TID 0000.0001) dyU =  /* dyU(1,:,1,:) ( units: m ) */
(PID.TID 0000.0001)    64 @  3.126866438026091E+05              /* J =  1: 64 */
(PID.TID 0000.0001)     ;
(PID.TID 0000.0001) rA  =  /* rA (:,1,:,1) ( units: m^2 ) */
(PID.TID 0000.0001)   128 @  2.399227099019018E+09              /* I =  1:128 */
(PID.TID 0000.0001)     ;
(PID.TID 0000.0001) rA  =  /* rA (1,:,1,:) ( units: m^2 ) */
(PID.TID 0000.0001)                 2.399227099019018E+09,      /* J =  1 */
(PID.TID 0000.0001)                 7.191901348828056E+09,      /* J =  2 */
(PID.TID 0000.0001)                 1.196724967835171E+10,      /* J =  3 */
(PID.TID 0000.0001)                 1.671376785519299E+10,      /* J =  4 */
(PID.TID 0000.0001)                 2.142002110131771E+10,      /* J =  5 */
(PID.TID 0000.0001)                 2.607467164043704E+10,      /* J =  6 */
(PID.TID 0000.0001)                 3.066650601170349E+10,      /* J =  7 */
(PID.TID 0000.0001)                 3.518446208391881E+10,      /* J =  8 */
(PID.TID 0000.0001)                 3.961765570517892E+10,      /* J =  9 */
(PID.TID 0000.0001)                 4.395540692374860E+10,      /* J = 10 */
(PID.TID 0000.0001)                 4.818726571700000E+10,      /* J = 11 */
(PID.TID 0000.0001)                 5.230303716643355E+10,      /* J = 12 */
(PID.TID 0000.0001)                 5.629280601812719E+10,      /* J = 13 */
(PID.TID 0000.0001)                 6.014696056945681E+10,      /* J = 14 */
(PID.TID 0000.0001)                 6.385621582452237E+10,      /* J = 15 */
(PID.TID 0000.0001)                 6.741163586252281E+10,      /* J = 16 */
(PID.TID 0000.0001)                 7.080465536516846E+10,      /* J = 17 */
(PID.TID 0000.0001)                 7.402710025128452E+10,      /* J = 18 */
(PID.TID 0000.0001)                 7.707120736888658E+10,      /* J = 19 */
(PID.TID 0000.0001)                 7.992964319729683E+10,      /* J = 20 */
(PID.TID 0000.0001)                 8.259552151423444E+10,      /* J = 21 */
(PID.TID 0000.0001)                 8.506241998533159E+10,      /* J = 22 */
(PID.TID 0000.0001)                 8.732439563609566E+10,      /* J = 23 */
(PID.TID 0000.0001)                 8.937599916905872E+10,      /* J = 24 */
(PID.TID 0000.0001)                 9.121228809161066E+10,      /* J = 25 */
(PID.TID 0000.0001)                 9.282883862289705E+10,      /* J = 26 */
(PID.TID 0000.0001)                 9.422175635109474E+10,      /* J = 27 */
(PID.TID 0000.0001)                 9.538768561539165E+10,      /* J = 28 */
(PID.TID 0000.0001)                 9.632381759006650E+10,      /* J = 29 */
(PID.TID 0000.0001)                 9.702789705119698E+10,      /* J = 30 */
(PID.TID 0000.0001)                 9.749822780969106E+10,      /* J = 31 */
(PID.TID 0000.0001)     2 @  9.773367679755542E+10,             /* J = 32: 33 */
(PID.TID 0000.0001)                 9.749822780969106E+10,      /* J = 34 */
(PID.TID 0000.0001)                 9.702789705119698E+10,      /* J = 35 */
(PID.TID 0000.0001)                 9.632381759006650E+10,      /* J = 36 */
(PID.TID 0000.0001)                 9.538768561539165E+10,      /* J = 37 */
(PID.TID 0000.0001)                 9.422175635109474E+10,      /* J = 38 */
(PID.TID 0000.0001)                 9.282883862289705E+10,      /* J = 39 */
(PID.TID 0000.0001)                 9.121228809161066E+10,      /* J = 40 */
(PID.TID 0000.0001)                 8.937599916905872E+10,      /* J = 41 */
(PID.TID 0000.0001)                 8.732439563609566E+10,      /* J = 42 */
(PID.TID 0000.0001)                 8.506241998533159E+10,      /* J = 43 */
(PID.TID 0000.0001)                 8.259552151423444E+10,      /* J = 44 */
(PID.TID 0000.0001)                 7.992964319729683E+10,      /* J = 45 */
(PID.TID 0000.0001)                 7.707120736888658E+10,      /* J = 46 */
(PID.TID 0000.0001)                 7.402710025128452E+10,      /* J = 47 */
(PID.TID 0000.0001)                 7.080465536516846E+10,      /* J = 48 */
(PID.TID 0000.0001)                 6.741163586252281E+10,      /* J = 49 */
(PID.TID 0000.0001)                 6.385621582452237E+10,      /* J = 50 */
(PID.TID 0000.0001)                 6.014696056945681E+10,      /* J = 51 */
(PID.TID 0000.0001)                 5.629280601812719E+10,      /* J = 52 */
(PID.TID 0000.0001)                 5.230303716643355E+10,      /* J = 53 */
(PID.TID 0000.0001)                 4.818726571700000E+10,      /* J = 54 */
(PID.TID 0000.0001)                 4.395540692374860E+10,      /* J = 55 */
(PID.TID 0000.0001)                 3.961765570517892E+10,      /* J = 56 */
(PID.TID 0000.0001)                 3.518446208391881E+10,      /* J = 57 */
(PID.TID 0000.0001)                 3.066650601170349E+10,      /* J = 58 */
(PID.TID 0000.0001)                 2.607467164043704E+10,      /* J = 59 */
(PID.TID 0000.0001)                 2.142002110131771E+10,      /* J = 60 */
(PID.TID 0000.0001)                 1.671376785519299E+10,      /* J = 61 */
(PID.TID 0000.0001)                 1.196724967835171E+10,      /* J = 62 */
(PID.TID 0000.0001)                 7.191901348828056E+09,      /* J = 63 */
(PID.TID 0000.0001)                 2.399227099019018E+09       /* J = 64 */
(PID.TID 0000.0001)     ;
(PID.TID 0000.0001) rAw =  /* rAw(:,1,:,1) ( units: m^2 ) */
(PID.TID 0000.0001)   128 @  2.399227099019018E+09              /* I =  1:128 */
(PID.TID 0000.0001)     ;
(PID.TID 0000.0001) rAw =  /* rAw(1,:,1,:) ( units: m^2 ) */
(PID.TID 0000.0001)                 2.399227099019018E+09,      /* J =  1 */
(PID.TID 0000.0001)                 7.191901348828056E+09,      /* J =  2 */
(PID.TID 0000.0001)                 1.196724967835171E+10,      /* J =  3 */
(PID.TID 0000.0001)                 1.671376785519299E+10,      /* J =  4 */
(PID.TID 0000.0001)                 2.142002110131771E+10,      /* J =  5 */
(PID.TID 0000.0001)                 2.607467164043704E+10,      /* J =  6 */
(PID.TID 0000.0001)                 3.066650601170349E+10,      /* J =  7 */
(PID.TID 0000.0001)                 3.518446208391881E+10,      /* J =  8 */
(PID.TID 0000.0001)                 3.961765570517892E+10,      /* J =  9 */
(PID.TID 0000.0001)                 4.395540692374860E+10,      /* J = 10 */
(PID.TID 0000.0001)                 4.818726571700000E+10,      /* J = 11 */
(PID.TID 0000.0001)                 5.230303716643355E+10,      /* J = 12 */
(PID.TID 0000.0001)                 5.629280601812719E+10,      /* J = 13 */
(PID.TID 0000.0001)                 6.014696056945681E+10,      /* J = 14 */
(PID.TID 0000.0001)                 6.385621582452237E+10,      /* J = 15 */
(PID.TID 0000.0001)                 6.741163586252281E+10,      /* J = 16 */
(PID.TID 0000.0001)                 7.080465536516846E+10,      /* J = 17 */
(PID.TID 0000.0001)                 7.402710025128452E+10,      /* J = 18 */
(PID.TID 0000.0001)                 7.707120736888658E+10,      /* J = 19 */
(PID.TID 0000.0001)                 7.992964319729683E+10,      /* J = 20 */
(PID.TID 0000.0001)                 8.259552151423444E+10,      /* J = 21 */
(PID.TID 0000.0001)                 8.506241998533159E+10,      /* J = 22 */
(PID.TID 0000.0001)                 8.732439563609566E+10,      /* J = 23 */
(PID.TID 0000.0001)                 8.937599916905872E+10,      /* J = 24 */
(PID.TID 0000.0001)                 9.121228809161066E+10,      /* J = 25 */
(PID.TID 0000.0001)                 9.282883862289705E+10,      /* J = 26 */
(PID.TID 0000.0001)                 9.422175635109474E+10,      /* J = 27 */
(PID.TID 0000.0001)                 9.538768561539165E+10,      /* J = 28 */
(PID.TID 0000.0001)                 9.632381759006650E+10,      /* J = 29 */
(PID.TID 0000.0001)                 9.702789705119698E+10,      /* J = 30 */
(PID.TID 0000.0001)                 9.749822780969106E+10,      /* J = 31 */
(PID.TID 0000.0001)     2 @  9.773367679755542E+10,             /* J = 32: 33 */
(PID.TID 0000.0001)                 9.749822780969106E+10,      /* J = 34 */
(PID.TID 0000.0001)                 9.702789705119698E+10,      /* J = 35 */
(PID.TID 0000.0001)                 9.632381759006650E+10,      /* J = 36 */
(PID.TID 0000.0001)                 9.538768561539165E+10,      /* J = 37 */
(PID.TID 0000.0001)                 9.422175635109474E+10,      /* J = 38 */
(PID.TID 0000.0001)                 9.282883862289705E+10,      /* J = 39 */
(PID.TID 0000.0001)                 9.121228809161066E+10,      /* J = 40 */
(PID.TID 0000.0001)                 8.937599916905872E+10,      /* J = 41 */
(PID.TID 0000.0001)                 8.732439563609566E+10,      /* J = 42 */
(PID.TID 0000.0001)                 8.506241998533159E+10,      /* J = 43 */
(PID.TID 0000.0001)                 8.259552151423444E+10,      /* J = 44 */
(PID.TID 0000.0001)                 7.992964319729683E+10,      /* J = 45 */
(PID.TID 0000.0001)                 7.707120736888658E+10,      /* J = 46 */
(PID.TID 0000.0001)                 7.402710025128452E+10,      /* J = 47 */
(PID.TID 0000.0001)                 7.080465536516846E+10,      /* J = 48 */
(PID.TID 0000.0001)                 6.741163586252281E+10,      /* J = 49 */
(PID.TID 0000.0001)                 6.385621582452237E+10,      /* J = 50 */
(PID.TID 0000.0001)                 6.014696056945681E+10,      /* J = 51 */
(PID.TID 0000.0001)                 5.629280601812719E+10,      /* J = 52 */
(PID.TID 0000.0001)                 5.230303716643355E+10,      /* J = 53 */
(PID.TID 0000.0001)                 4.818726571700000E+10,      /* J = 54 */
(PID.TID 0000.0001)                 4.395540692374860E+10,      /* J = 55 */
(PID.TID 0000.0001)                 3.961765570517892E+10,      /* J = 56 */
(PID.TID 0000.0001)                 3.518446208391881E+10,      /* J = 57 */
(PID.TID 0000.0001)                 3.066650601170349E+10,      /* J = 58 */
(PID.TID 0000.0001)                 2.607467164043704E+10,      /* J = 59 */
(PID.TID 0000.0001)                 2.142002110131771E+10,      /* J = 60 */
(PID.TID 0000.0001)                 1.671376785519299E+10,      /* J = 61 */
(PID.TID 0000.0001)                 1.196724967835171E+10,      /* J = 62 */
(PID.TID 0000.0001)                 7.191901348828056E+09,      /* J = 63 */
(PID.TID 0000.0001)                 2.399227099019018E+09       /* J = 64 */
(PID.TID 0000.0001)     ;
(PID.TID 0000.0001) rAs =  /* rAs(:,1,:,1) ( units: m^2 ) */
(PID.TID 0000.0001)   128 @  0.000000000000000E+00              /* I =  1:128 */
(PID.TID 0000.0001)     ;
(PID.TID 0000.0001) rAs =  /* rAs(1,:,1,:) ( units: m^2 ) */
(PID.TID 0000.0001)                 0.000000000000000E+00,      /* J =  1 */
(PID.TID 0000.0001)                 4.797008993346594E+09,      /* J =  2 */
(PID.TID 0000.0001)                 9.582461571859739E+09,      /* J =  3 */
(PID.TID 0000.0001)                 1.434482916112175E+10,      /* J =  4 */
(PID.TID 0000.0001)                 1.907263880047594E+10,      /* J =  5 */
(PID.TID 0000.0001)                 2.375450078239423E+10,      /* J =  6 */
(PID.TID 0000.0001)                 2.837913609127881E+10,      /* J =  7 */
(PID.TID 0000.0001)                 3.293540357560110E+10,      /* J =  8 */
(PID.TID 0000.0001)                 3.741232678790870E+10,      /* J =  9 */
(PID.TID 0000.0001)                 4.179912042805190E+10,      /* J = 10 */
(PID.TID 0000.0001)                 4.608521632591324E+10,      /* J = 11 */
(PID.TID 0000.0001)                 5.026028890105701E+10,      /* J = 12 */
(PID.TID 0000.0001)                 5.431428003795675E+10,      /* J = 13 */
(PID.TID 0000.0001)                 5.823742331687641E+10,      /* J = 14 */
(PID.TID 0000.0001)                 6.202026754202965E+10,      /* J = 15 */
(PID.TID 0000.0001)                 6.565369951034003E+10,      /* J = 16 */
(PID.TID 0000.0001)                 6.912896596594559E+10,      /* J = 17 */
(PID.TID 0000.0001)                 7.243769468755632E+10,      /* J = 18 */
(PID.TID 0000.0001)                 7.557191465787256E+10,      /* J = 19 */
(PID.TID 0000.0001)                 7.852407526645966E+10,      /* J = 20 */
(PID.TID 0000.0001)                 8.128706449983365E+10,      /* J = 21 */
(PID.TID 0000.0001)                 8.385422607492096E+10,      /* J = 22 */
(PID.TID 0000.0001)                 8.621937547463148E+10,      /* J = 23 */
(PID.TID 0000.0001)                 8.837681484689812E+10,      /* J = 24 */
(PID.TID 0000.0001)                 9.032134673130376E+10,      /* J = 25 */
(PID.TID 0000.0001)                 9.204828658021815E+10,      /* J = 26 */
(PID.TID 0000.0001)                 9.355347404428317E+10,      /* J = 27 */
(PID.TID 0000.0001)                 9.483328299505896E+10,      /* J = 28 */
(PID.TID 0000.0001)                 9.588463026068500E+10,      /* J = 29 */
(PID.TID 0000.0001)                 9.670498305351135E+10,      /* J = 30 */
(PID.TID 0000.0001)                 9.729236507180571E+10,      /* J = 31 */
(PID.TID 0000.0001)                 9.764536126083739E+10,      /* J = 32 */
(PID.TID 0000.0001)                 9.776312122186816E+10,      /* J = 33 */
(PID.TID 0000.0001)                 9.764536126083739E+10,      /* J = 34 */
(PID.TID 0000.0001)                 9.729236507180571E+10,      /* J = 35 */
(PID.TID 0000.0001)                 9.670498305351135E+10,      /* J = 36 */
(PID.TID 0000.0001)                 9.588463026068500E+10,      /* J = 37 */
(PID.TID 0000.0001)                 9.483328299505896E+10,      /* J = 38 */
(PID.TID 0000.0001)                 9.355347404428317E+10,      /* J = 39 */
(PID.TID 0000.0001)                 9.204828658021815E+10,      /* J = 40 */
(PID.TID 0000.0001)                 9.032134673130376E+10,      /* J = 41 */
(PID.TID 0000.0001)                 8.837681484689812E+10,      /* J = 42 */
(PID.TID 0000.0001)                 8.621937547463148E+10,      /* J = 43 */
(PID.TID 0000.0001)                 8.385422607492096E+10,      /* J = 44 */
(PID.TID 0000.0001)                 8.128706449983365E+10,      /* J = 45 */
(PID.TID 0000.0001)                 7.852407526645966E+10,      /* J = 46 */
(PID.TID 0000.0001)                 7.557191465787256E+10,      /* J = 47 */
(PID.TID 0000.0001)                 7.243769468755632E+10,      /* J = 48 */
(PID.TID 0000.0001)                 6.912896596594559E+10,      /* J = 49 */
(PID.TID 0000.0001)                 6.565369951034003E+10,      /* J = 50 */
(PID.TID 0000.0001)                 6.202026754202965E+10,      /* J = 51 */
(PID.TID 0000.0001)                 5.823742331687641E+10,      /* J = 52 */
(PID.TID 0000.0001)                 5.431428003795675E+10,      /* J = 53 */
(PID.TID 0000.0001)                 5.026028890105701E+10,      /* J = 54 */
(PID.TID 0000.0001)                 4.608521632591324E+10,      /* J = 55 */
(PID.TID 0000.0001)                 4.179912042805190E+10,      /* J = 56 */
(PID.TID 0000.0001)                 3.741232678790870E+10,      /* J = 57 */
(PID.TID 0000.0001)                 3.293540357560110E+10,      /* J = 58 */
(PID.TID 0000.0001)                 2.837913609127881E+10,      /* J = 59 */
(PID.TID 0000.0001)                 2.375450078239423E+10,      /* J = 60 */
(PID.TID 0000.0001)                 1.907263880047594E+10,      /* J = 61 */
(PID.TID 0000.0001)                 1.434482916112175E+10,      /* J = 62 */
(PID.TID 0000.0001)                 9.582461571859739E+09,      /* J = 63 */
(PID.TID 0000.0001)                 4.797008993346594E+09       /* J = 64 */
(PID.TID 0000.0001)     ;
(PID.TID 0000.0001) globalArea = /* Integrated horizontal Area (m^2) */
(PID.TID 0000.0001)                 3.303322488638365E+14
(PID.TID 0000.0001)     ;
(PID.TID 0000.0001) // =======================================================
(PID.TID 0000.0001) // End of Model config. summary
(PID.TID 0000.0001) // =======================================================
(PID.TID 0000.0001) 
(PID.TID 0000.0001) == Packages configuration : Check & print summary ==
(PID.TID 0000.0001) 
(PID.TID 0000.0001) GGL90_CHECK: #define ALLOW_GGL90
(PID.TID 0000.0001) GGL90_CHECK: Some form of convection has been enabled
(PID.TID 0000.0001) GMREDI_CHECK: #define GMREDI
(PID.TID 0000.0001) GM_AdvForm =     /* if FALSE => use SkewFlux Form */
(PID.TID 0000.0001)                   F
(PID.TID 0000.0001)     ;
(PID.TID 0000.0001) GM_InMomAsStress = /* if TRUE => apply as Eddy Stress */
(PID.TID 0000.0001)                   F
(PID.TID 0000.0001)     ;
(PID.TID 0000.0001) GM_AdvSeparate = /* Calc Bolus & Euler Adv. separately */
(PID.TID 0000.0001)                   F
(PID.TID 0000.0001)     ;
(PID.TID 0000.0001) GM_ExtraDiag =   /* Tensor Extra Diag (line 1&2) non 0 */
(PID.TID 0000.0001)                   F
(PID.TID 0000.0001)     ;
(PID.TID 0000.0001) GM_isopycK =    /* Background Isopyc. Diffusivity [m^2/s] */
(PID.TID 0000.0001)                 1.000000000000000E+03
(PID.TID 0000.0001)     ;
(PID.TID 0000.0001) GM_skewflx*K =  /* Background GM_SkewFlx Diffusivity [m^2/s] */
(PID.TID 0000.0001)                 1.000000000000000E+03
(PID.TID 0000.0001)     ;
(PID.TID 0000.0001) GM_advec*K =    /* Backg. GM-Advec(=Bolus) Diffusivity [m^2/s]*/
(PID.TID 0000.0001)                 0.000000000000000E+00
(PID.TID 0000.0001)     ;
(PID.TID 0000.0001) GM_Kmin_horiz = /* Minimum Horizontal Diffusivity [m^2/s] */
(PID.TID 0000.0001)                 1.000000000000000E+02
(PID.TID 0000.0001)     ;
(PID.TID 0000.0001) GM_Visbeck_alpha = /* Visbeck alpha coeff. [-] */
(PID.TID 0000.0001)                 0.000000000000000E+00
(PID.TID 0000.0001)     ;
(PID.TID 0000.0001) GM_Small_Number =  /* epsilon used in slope calc */
(PID.TID 0000.0001)                 9.999999999999999E-21
(PID.TID 0000.0001)     ;
(PID.TID 0000.0001) GM_slopeSqCutoff = /* Slope^2 cut-off value */
(PID.TID 0000.0001)                 1.000000000000000E+48
(PID.TID 0000.0001)     ;
(PID.TID 0000.0001) GM_taper_scheme =  /* Type of Tapering/Clipping scheme */
(PID.TID 0000.0001)               'gkw91                                   '
(PID.TID 0000.0001)     ;
(PID.TID 0000.0001) GM_maxSlope =  /* Maximum Slope (Tapering/Clipping) */
(PID.TID 0000.0001)                 1.000000000000000E-02
(PID.TID 0000.0001)     ;
(PID.TID 0000.0001) GM_facTrL2dz = /* Minimum Trans.Layer Thick. (factor of dz) */
(PID.TID 0000.0001)                 1.000000000000000E+00
(PID.TID 0000.0001)     ;
(PID.TID 0000.0001) GM_facTrL2ML = /* Max.Trans.Layer Thick. (factor of MxL Depth)*/
(PID.TID 0000.0001)                 5.000000000000000E+00
(PID.TID 0000.0001)     ;
(PID.TID 0000.0001) GM_maxTransLay = /* Maximum Transition Layer Thickness [m] */
(PID.TID 0000.0001)                 5.000000000000000E+02
(PID.TID 0000.0001)     ;
(PID.TID 0000.0001) GM_UseBVP = /* if TRUE => use bvp a la Ferrari et al. (2010) */
(PID.TID 0000.0001)                   F
(PID.TID 0000.0001)     ;
(PID.TID 0000.0001) GM_BVP_ModeNumber = /* Vertical mode number for BVP wave speed */
(PID.TID 0000.0001)                       1
(PID.TID 0000.0001)     ;
(PID.TID 0000.0001) GM_BVP_cMin = /* Minimum wave speed for BVP [m/s] */
(PID.TID 0000.0001)                 1.000000000000000E-01
(PID.TID 0000.0001)     ;
(PID.TID 0000.0001) GM_useSubMeso = /* if TRUE => use Sub-Meso param. (B.Fox-Kemper) */
(PID.TID 0000.0001)                   F
(PID.TID 0000.0001)     ;
(PID.TID 0000.0001) subMeso_Ceff = /* efficiency coeff. of Mixed-Layer Eddies [-] */
(PID.TID 0000.0001)                 7.000000000000001E-02
(PID.TID 0000.0001)     ;
(PID.TID 0000.0001) subMeso_invTau = /* inverse of Sub-Meso mixing time-scale [/s] */
(PID.TID 0000.0001)                 2.000000000000000E-06
(PID.TID 0000.0001)     ;
(PID.TID 0000.0001) subMeso_LfMin = /* minimum length-scale "Lf" [m] */
(PID.TID 0000.0001)                 1.000000000000000E+03
(PID.TID 0000.0001)     ;
(PID.TID 0000.0001) subMeso_Lmax = /* maximum grid-scale length [m] */
(PID.TID 0000.0001)                 1.100000000000000E+05
(PID.TID 0000.0001)     ;
(PID.TID 0000.0001) GM_useLeithQG = /* if TRUE => add QG Leith viscosity to GMRedi tensor */
(PID.TID 0000.0001)                   F
(PID.TID 0000.0001)     ;
(PID.TID 0000.0001) EXF_CHECK: #define ALLOW_EXF
(PID.TID 0000.0001) PTRACERS_CHECK: #define ALLOW_PTRACERS
(PID.TID 0000.0001) // ===================================
(PID.TID 0000.0001) // PTRACERS parameters
(PID.TID 0000.0001) // ===================================
(PID.TID 0000.0001) PTRACERS_numInUse = /* number of tracers */
(PID.TID 0000.0001)                      31
(PID.TID 0000.0001)     ;
(PID.TID 0000.0001) PTRACERS_Iter0 = /* timestep number when tracers are initialized */
(PID.TID 0000.0001)                       0
(PID.TID 0000.0001)     ;
(PID.TID 0000.0001) PTRACERS_startAllTrc =/* all tracers start @ startTime */
(PID.TID 0000.0001)                   T
(PID.TID 0000.0001)     ;
(PID.TID 0000.0001) PTRACERS_doAB_onGpTr =/* apply AB on Tendencies (rather than on Tracers) */
(PID.TID 0000.0001)                   F
(PID.TID 0000.0001)     ;
(PID.TID 0000.0001) PTRACERS_addSrelax2EmP =/* add Salt relaxation to EmP */
(PID.TID 0000.0001)                   F
(PID.TID 0000.0001)     ;
(PID.TID 0000.0001) PTRACERS_dTLev =   /* Ptracer timestep ( s ) */
(PID.TID 0000.0001)    15 @  1.200000000000000E+03              /* K =  1: 15 */
(PID.TID 0000.0001)     ;
(PID.TID 0000.0001) PTRACERS_monitorFreq = /* Frequency^-1 for monitor output (s) */
(PID.TID 0000.0001)                 1.000000000000000E+00
(PID.TID 0000.0001)     ;
(PID.TID 0000.0001) PTRACERS_dumpFreq = /* Frequency^-1 for snapshot output (s) */
(PID.TID 0000.0001)                 0.000000000000000E+00
(PID.TID 0000.0001)     ;
(PID.TID 0000.0001) PTRACERS_taveFreq = /* Frequency^-1 for time-Aver. output (s) */
(PID.TID 0000.0001)                 0.000000000000000E+00
(PID.TID 0000.0001)     ;
(PID.TID 0000.0001) PTRACERS_useRecords = /* all tracers in 1 file */
(PID.TID 0000.0001)                   F
(PID.TID 0000.0001)     ;
(PID.TID 0000.0001) PTRACERS_timeave_mnc = /* use MNC for Tave output */
(PID.TID 0000.0001)                   F
(PID.TID 0000.0001)     ;
(PID.TID 0000.0001) PTRACERS_snapshot_mnc = /* use MNC for snapshot output */
(PID.TID 0000.0001)                   F
(PID.TID 0000.0001)     ;
(PID.TID 0000.0001) PTRACERS_pickup_write_mnc = /* use MNC for writing pickups */
(PID.TID 0000.0001)                   F
(PID.TID 0000.0001)     ;
(PID.TID 0000.0001) PTRACERS_pickup_read_mnc = /* use MNC for reading pickups */
(PID.TID 0000.0001)                   F
(PID.TID 0000.0001)     ;
(PID.TID 0000.0001)  -----------------------------------
(PID.TID 0000.0001)  tracer number :    1
(PID.TID 0000.0001) PTRACERS_names = /* Tracer short name */
(PID.TID 0000.0001)               'DIC'
(PID.TID 0000.0001)     ;
(PID.TID 0000.0001) PTRACERS_long_names = /* Tracer long name */
(PID.TID 0000.0001)               ''
(PID.TID 0000.0001)     ;
(PID.TID 0000.0001) PTRACERS_ioLabel = /* tracer IO Label */
(PID.TID 0000.0001)               '01'
(PID.TID 0000.0001)     ;
(PID.TID 0000.0001) PTRACERS_advScheme = /* Advection Scheme */
(PID.TID 0000.0001)                      33
(PID.TID 0000.0001)     ;
(PID.TID 0000.0001) PTRACERS_SOM_Advection = /* tracer uses SOM advection scheme */
(PID.TID 0000.0001)                   F
(PID.TID 0000.0001)     ;
(PID.TID 0000.0001) PTRACERS_ImplVertAdv = /* implicit vert. advection flag */
(PID.TID 0000.0001)                   F
(PID.TID 0000.0001)     ;
(PID.TID 0000.0001) PTRACERS_MultiDimAdv = /* tracer uses Multi-Dim advection */
(PID.TID 0000.0001)                   T
(PID.TID 0000.0001)     ;
(PID.TID 0000.0001) PTRACERS_AdamsBashGtr = /* apply AB on tracer tendency */
(PID.TID 0000.0001)                   F
(PID.TID 0000.0001)     ;
(PID.TID 0000.0001) PTRACERS_AdamsBash_Tr = /* apply AB on passive tracer */
(PID.TID 0000.0001)                   F
(PID.TID 0000.0001)     ;
(PID.TID 0000.0001) PTRACERS_diffKh = /* Laplacian Diffusivity */
(PID.TID 0000.0001)                 0.000000000000000E+00
(PID.TID 0000.0001)     ;
(PID.TID 0000.0001) PTRACERS_diffK4 = /* Biharmonic Diffusivity */
(PID.TID 0000.0001)                 0.000000000000000E+00
(PID.TID 0000.0001)     ;
(PID.TID 0000.0001) PTRACERS_diffKrNr = /* Vertical Diffusivity */
(PID.TID 0000.0001)    15 @  1.000000000000000E-05              /* K =  1: 15 */
(PID.TID 0000.0001)     ;
(PID.TID 0000.0001) PTRACERS_useGMRedi = /* apply GM-Redi */
(PID.TID 0000.0001)                   T
(PID.TID 0000.0001)     ;
(PID.TID 0000.0001) PTRACERS_useDWNSLP = /* apply DOWN-SLOPE Flow */
(PID.TID 0000.0001)                   F
(PID.TID 0000.0001)     ;
(PID.TID 0000.0001) PTRACERS_useKPP = /* apply KPP scheme */
(PID.TID 0000.0001)                   F
(PID.TID 0000.0001)     ;
(PID.TID 0000.0001) PTRACERS_ref = /* Reference vertical profile */
(PID.TID 0000.0001)    15 @  0.000000000000000E+00              /* K =  1: 15 */
(PID.TID 0000.0001)     ;
(PID.TID 0000.0001) PTRACERS_EvPrRn =/* tracer conc. in Evap. & Rain */
(PID.TID 0000.0001)                 0.000000000000000E+00
(PID.TID 0000.0001)     ;
(PID.TID 0000.0001)  -----------------------------------
(PID.TID 0000.0001)  tracer number :    2
(PID.TID 0000.0001) PTRACERS_names = /* Tracer short name */
(PID.TID 0000.0001)               'NO3'
(PID.TID 0000.0001)     ;
(PID.TID 0000.0001) PTRACERS_long_names = /* Tracer long name */
(PID.TID 0000.0001)               ''
(PID.TID 0000.0001)     ;
(PID.TID 0000.0001) PTRACERS_ioLabel = /* tracer IO Label */
(PID.TID 0000.0001)               '02'
(PID.TID 0000.0001)     ;
(PID.TID 0000.0001) PTRACERS_advScheme = /* Advection Scheme */
(PID.TID 0000.0001)                      33
(PID.TID 0000.0001)     ;
(PID.TID 0000.0001) PTRACERS_SOM_Advection = /* tracer uses SOM advection scheme */
(PID.TID 0000.0001)                   F
(PID.TID 0000.0001)     ;
(PID.TID 0000.0001) PTRACERS_ImplVertAdv = /* implicit vert. advection flag */
(PID.TID 0000.0001)                   F
(PID.TID 0000.0001)     ;
(PID.TID 0000.0001) PTRACERS_MultiDimAdv = /* tracer uses Multi-Dim advection */
(PID.TID 0000.0001)                   T
(PID.TID 0000.0001)     ;
(PID.TID 0000.0001) PTRACERS_AdamsBashGtr = /* apply AB on tracer tendency */
(PID.TID 0000.0001)                   F
(PID.TID 0000.0001)     ;
(PID.TID 0000.0001) PTRACERS_AdamsBash_Tr = /* apply AB on passive tracer */
(PID.TID 0000.0001)                   F
(PID.TID 0000.0001)     ;
(PID.TID 0000.0001) PTRACERS_diffKh = /* Laplacian Diffusivity */
(PID.TID 0000.0001)                 0.000000000000000E+00
(PID.TID 0000.0001)     ;
(PID.TID 0000.0001) PTRACERS_diffK4 = /* Biharmonic Diffusivity */
(PID.TID 0000.0001)                 0.000000000000000E+00
(PID.TID 0000.0001)     ;
(PID.TID 0000.0001) PTRACERS_diffKrNr = /* Vertical Diffusivity */
(PID.TID 0000.0001)    15 @  1.000000000000000E-05              /* K =  1: 15 */
(PID.TID 0000.0001)     ;
(PID.TID 0000.0001) PTRACERS_useGMRedi = /* apply GM-Redi */
(PID.TID 0000.0001)                   T
(PID.TID 0000.0001)     ;
(PID.TID 0000.0001) PTRACERS_useDWNSLP = /* apply DOWN-SLOPE Flow */
(PID.TID 0000.0001)                   F
(PID.TID 0000.0001)     ;
(PID.TID 0000.0001) PTRACERS_useKPP = /* apply KPP scheme */
(PID.TID 0000.0001)                   F
(PID.TID 0000.0001)     ;
(PID.TID 0000.0001) PTRACERS_ref = /* Reference vertical profile */
(PID.TID 0000.0001)    15 @  0.000000000000000E+00              /* K =  1: 15 */
(PID.TID 0000.0001)     ;
(PID.TID 0000.0001) PTRACERS_EvPrRn =/* tracer conc. in Evap. & Rain */
(PID.TID 0000.0001)                 1.234567000000000E+05
(PID.TID 0000.0001)     ;
(PID.TID 0000.0001)  -----------------------------------
(PID.TID 0000.0001)  tracer number :    3
(PID.TID 0000.0001) PTRACERS_names = /* Tracer short name */
(PID.TID 0000.0001)               'NO2'
(PID.TID 0000.0001)     ;
(PID.TID 0000.0001) PTRACERS_long_names = /* Tracer long name */
(PID.TID 0000.0001)               ''
(PID.TID 0000.0001)     ;
(PID.TID 0000.0001) PTRACERS_ioLabel = /* tracer IO Label */
(PID.TID 0000.0001)               '03'
(PID.TID 0000.0001)     ;
(PID.TID 0000.0001) PTRACERS_advScheme = /* Advection Scheme */
(PID.TID 0000.0001)                      33
(PID.TID 0000.0001)     ;
(PID.TID 0000.0001) PTRACERS_SOM_Advection = /* tracer uses SOM advection scheme */
(PID.TID 0000.0001)                   F
(PID.TID 0000.0001)     ;
(PID.TID 0000.0001) PTRACERS_ImplVertAdv = /* implicit vert. advection flag */
(PID.TID 0000.0001)                   F
(PID.TID 0000.0001)     ;
(PID.TID 0000.0001) PTRACERS_MultiDimAdv = /* tracer uses Multi-Dim advection */
(PID.TID 0000.0001)                   T
(PID.TID 0000.0001)     ;
(PID.TID 0000.0001) PTRACERS_AdamsBashGtr = /* apply AB on tracer tendency */
(PID.TID 0000.0001)                   F
(PID.TID 0000.0001)     ;
(PID.TID 0000.0001) PTRACERS_AdamsBash_Tr = /* apply AB on passive tracer */
(PID.TID 0000.0001)                   F
(PID.TID 0000.0001)     ;
(PID.TID 0000.0001) PTRACERS_diffKh = /* Laplacian Diffusivity */
(PID.TID 0000.0001)                 0.000000000000000E+00
(PID.TID 0000.0001)     ;
(PID.TID 0000.0001) PTRACERS_diffK4 = /* Biharmonic Diffusivity */
(PID.TID 0000.0001)                 0.000000000000000E+00
(PID.TID 0000.0001)     ;
(PID.TID 0000.0001) PTRACERS_diffKrNr = /* Vertical Diffusivity */
(PID.TID 0000.0001)    15 @  1.000000000000000E-05              /* K =  1: 15 */
(PID.TID 0000.0001)     ;
(PID.TID 0000.0001) PTRACERS_useGMRedi = /* apply GM-Redi */
(PID.TID 0000.0001)                   T
(PID.TID 0000.0001)     ;
(PID.TID 0000.0001) PTRACERS_useDWNSLP = /* apply DOWN-SLOPE Flow */
(PID.TID 0000.0001)                   F
(PID.TID 0000.0001)     ;
(PID.TID 0000.0001) PTRACERS_useKPP = /* apply KPP scheme */
(PID.TID 0000.0001)                   F
(PID.TID 0000.0001)     ;
(PID.TID 0000.0001) PTRACERS_ref = /* Reference vertical profile */
(PID.TID 0000.0001)    15 @  0.000000000000000E+00              /* K =  1: 15 */
(PID.TID 0000.0001)     ;
(PID.TID 0000.0001) PTRACERS_EvPrRn =/* tracer conc. in Evap. & Rain */
(PID.TID 0000.0001)                 1.234567000000000E+05
(PID.TID 0000.0001)     ;
(PID.TID 0000.0001)  -----------------------------------
(PID.TID 0000.0001)  tracer number :    4
(PID.TID 0000.0001) PTRACERS_names = /* Tracer short name */
(PID.TID 0000.0001)               'NH4'
(PID.TID 0000.0001)     ;
(PID.TID 0000.0001) PTRACERS_long_names = /* Tracer long name */
(PID.TID 0000.0001)               ''
(PID.TID 0000.0001)     ;
(PID.TID 0000.0001) PTRACERS_ioLabel = /* tracer IO Label */
(PID.TID 0000.0001)               '04'
(PID.TID 0000.0001)     ;
(PID.TID 0000.0001) PTRACERS_advScheme = /* Advection Scheme */
(PID.TID 0000.0001)                      33
(PID.TID 0000.0001)     ;
(PID.TID 0000.0001) PTRACERS_SOM_Advection = /* tracer uses SOM advection scheme */
(PID.TID 0000.0001)                   F
(PID.TID 0000.0001)     ;
(PID.TID 0000.0001) PTRACERS_ImplVertAdv = /* implicit vert. advection flag */
(PID.TID 0000.0001)                   F
(PID.TID 0000.0001)     ;
(PID.TID 0000.0001) PTRACERS_MultiDimAdv = /* tracer uses Multi-Dim advection */
(PID.TID 0000.0001)                   T
(PID.TID 0000.0001)     ;
(PID.TID 0000.0001) PTRACERS_AdamsBashGtr = /* apply AB on tracer tendency */
(PID.TID 0000.0001)                   F
(PID.TID 0000.0001)     ;
(PID.TID 0000.0001) PTRACERS_AdamsBash_Tr = /* apply AB on passive tracer */
(PID.TID 0000.0001)                   F
(PID.TID 0000.0001)     ;
(PID.TID 0000.0001) PTRACERS_diffKh = /* Laplacian Diffusivity */
(PID.TID 0000.0001)                 0.000000000000000E+00
(PID.TID 0000.0001)     ;
(PID.TID 0000.0001) PTRACERS_diffK4 = /* Biharmonic Diffusivity */
(PID.TID 0000.0001)                 0.000000000000000E+00
(PID.TID 0000.0001)     ;
(PID.TID 0000.0001) PTRACERS_diffKrNr = /* Vertical Diffusivity */
(PID.TID 0000.0001)    15 @  1.000000000000000E-05              /* K =  1: 15 */
(PID.TID 0000.0001)     ;
(PID.TID 0000.0001) PTRACERS_useGMRedi = /* apply GM-Redi */
(PID.TID 0000.0001)                   T
(PID.TID 0000.0001)     ;
(PID.TID 0000.0001) PTRACERS_useDWNSLP = /* apply DOWN-SLOPE Flow */
(PID.TID 0000.0001)                   F
(PID.TID 0000.0001)     ;
(PID.TID 0000.0001) PTRACERS_useKPP = /* apply KPP scheme */
(PID.TID 0000.0001)                   F
(PID.TID 0000.0001)     ;
(PID.TID 0000.0001) PTRACERS_ref = /* Reference vertical profile */
(PID.TID 0000.0001)    15 @  0.000000000000000E+00              /* K =  1: 15 */
(PID.TID 0000.0001)     ;
(PID.TID 0000.0001) PTRACERS_EvPrRn =/* tracer conc. in Evap. & Rain */
(PID.TID 0000.0001)                 1.234567000000000E+05
(PID.TID 0000.0001)     ;
(PID.TID 0000.0001)  -----------------------------------
(PID.TID 0000.0001)  tracer number :    5
(PID.TID 0000.0001) PTRACERS_names = /* Tracer short name */
(PID.TID 0000.0001)               'PO4'
(PID.TID 0000.0001)     ;
(PID.TID 0000.0001) PTRACERS_long_names = /* Tracer long name */
(PID.TID 0000.0001)               ''
(PID.TID 0000.0001)     ;
(PID.TID 0000.0001) PTRACERS_ioLabel = /* tracer IO Label */
(PID.TID 0000.0001)               '05'
(PID.TID 0000.0001)     ;
(PID.TID 0000.0001) PTRACERS_advScheme = /* Advection Scheme */
(PID.TID 0000.0001)                      33
(PID.TID 0000.0001)     ;
(PID.TID 0000.0001) PTRACERS_SOM_Advection = /* tracer uses SOM advection scheme */
(PID.TID 0000.0001)                   F
(PID.TID 0000.0001)     ;
(PID.TID 0000.0001) PTRACERS_ImplVertAdv = /* implicit vert. advection flag */
(PID.TID 0000.0001)                   F
(PID.TID 0000.0001)     ;
(PID.TID 0000.0001) PTRACERS_MultiDimAdv = /* tracer uses Multi-Dim advection */
(PID.TID 0000.0001)                   T
(PID.TID 0000.0001)     ;
(PID.TID 0000.0001) PTRACERS_AdamsBashGtr = /* apply AB on tracer tendency */
(PID.TID 0000.0001)                   F
(PID.TID 0000.0001)     ;
(PID.TID 0000.0001) PTRACERS_AdamsBash_Tr = /* apply AB on passive tracer */
(PID.TID 0000.0001)                   F
(PID.TID 0000.0001)     ;
(PID.TID 0000.0001) PTRACERS_diffKh = /* Laplacian Diffusivity */
(PID.TID 0000.0001)                 0.000000000000000E+00
(PID.TID 0000.0001)     ;
(PID.TID 0000.0001) PTRACERS_diffK4 = /* Biharmonic Diffusivity */
(PID.TID 0000.0001)                 0.000000000000000E+00
(PID.TID 0000.0001)     ;
(PID.TID 0000.0001) PTRACERS_diffKrNr = /* Vertical Diffusivity */
(PID.TID 0000.0001)    15 @  1.000000000000000E-05              /* K =  1: 15 */
(PID.TID 0000.0001)     ;
(PID.TID 0000.0001) PTRACERS_useGMRedi = /* apply GM-Redi */
(PID.TID 0000.0001)                   T
(PID.TID 0000.0001)     ;
(PID.TID 0000.0001) PTRACERS_useDWNSLP = /* apply DOWN-SLOPE Flow */
(PID.TID 0000.0001)                   F
(PID.TID 0000.0001)     ;
(PID.TID 0000.0001) PTRACERS_useKPP = /* apply KPP scheme */
(PID.TID 0000.0001)                   F
(PID.TID 0000.0001)     ;
(PID.TID 0000.0001) PTRACERS_ref = /* Reference vertical profile */
(PID.TID 0000.0001)    15 @  0.000000000000000E+00              /* K =  1: 15 */
(PID.TID 0000.0001)     ;
(PID.TID 0000.0001) PTRACERS_EvPrRn =/* tracer conc. in Evap. & Rain */
(PID.TID 0000.0001)                 1.234567000000000E+05
(PID.TID 0000.0001)     ;
(PID.TID 0000.0001)  -----------------------------------
(PID.TID 0000.0001)  tracer number :    6
(PID.TID 0000.0001) PTRACERS_names = /* Tracer short name */
(PID.TID 0000.0001)               'FeT'
(PID.TID 0000.0001)     ;
(PID.TID 0000.0001) PTRACERS_long_names = /* Tracer long name */
(PID.TID 0000.0001)               ''
(PID.TID 0000.0001)     ;
(PID.TID 0000.0001) PTRACERS_ioLabel = /* tracer IO Label */
(PID.TID 0000.0001)               '06'
(PID.TID 0000.0001)     ;
(PID.TID 0000.0001) PTRACERS_advScheme = /* Advection Scheme */
(PID.TID 0000.0001)                      33
(PID.TID 0000.0001)     ;
(PID.TID 0000.0001) PTRACERS_SOM_Advection = /* tracer uses SOM advection scheme */
(PID.TID 0000.0001)                   F
(PID.TID 0000.0001)     ;
(PID.TID 0000.0001) PTRACERS_ImplVertAdv = /* implicit vert. advection flag */
(PID.TID 0000.0001)                   F
(PID.TID 0000.0001)     ;
(PID.TID 0000.0001) PTRACERS_MultiDimAdv = /* tracer uses Multi-Dim advection */
(PID.TID 0000.0001)                   T
(PID.TID 0000.0001)     ;
(PID.TID 0000.0001) PTRACERS_AdamsBashGtr = /* apply AB on tracer tendency */
(PID.TID 0000.0001)                   F
(PID.TID 0000.0001)     ;
(PID.TID 0000.0001) PTRACERS_AdamsBash_Tr = /* apply AB on passive tracer */
(PID.TID 0000.0001)                   F
(PID.TID 0000.0001)     ;
(PID.TID 0000.0001) PTRACERS_diffKh = /* Laplacian Diffusivity */
(PID.TID 0000.0001)                 0.000000000000000E+00
(PID.TID 0000.0001)     ;
(PID.TID 0000.0001) PTRACERS_diffK4 = /* Biharmonic Diffusivity */
(PID.TID 0000.0001)                 0.000000000000000E+00
(PID.TID 0000.0001)     ;
(PID.TID 0000.0001) PTRACERS_diffKrNr = /* Vertical Diffusivity */
(PID.TID 0000.0001)    15 @  1.000000000000000E-05              /* K =  1: 15 */
(PID.TID 0000.0001)     ;
(PID.TID 0000.0001) PTRACERS_useGMRedi = /* apply GM-Redi */
(PID.TID 0000.0001)                   T
(PID.TID 0000.0001)     ;
(PID.TID 0000.0001) PTRACERS_useDWNSLP = /* apply DOWN-SLOPE Flow */
(PID.TID 0000.0001)                   F
(PID.TID 0000.0001)     ;
(PID.TID 0000.0001) PTRACERS_useKPP = /* apply KPP scheme */
(PID.TID 0000.0001)                   F
(PID.TID 0000.0001)     ;
(PID.TID 0000.0001) PTRACERS_ref = /* Reference vertical profile */
(PID.TID 0000.0001)    15 @  0.000000000000000E+00              /* K =  1: 15 */
(PID.TID 0000.0001)     ;
(PID.TID 0000.0001) PTRACERS_EvPrRn =/* tracer conc. in Evap. & Rain */
(PID.TID 0000.0001)                 1.234567000000000E+05
(PID.TID 0000.0001)     ;
(PID.TID 0000.0001)  -----------------------------------
(PID.TID 0000.0001)  tracer number :    7
(PID.TID 0000.0001) PTRACERS_names = /* Tracer short name */
(PID.TID 0000.0001)               'SiO2'
(PID.TID 0000.0001)     ;
(PID.TID 0000.0001) PTRACERS_long_names = /* Tracer long name */
(PID.TID 0000.0001)               ''
(PID.TID 0000.0001)     ;
(PID.TID 0000.0001) PTRACERS_ioLabel = /* tracer IO Label */
(PID.TID 0000.0001)               '07'
(PID.TID 0000.0001)     ;
(PID.TID 0000.0001) PTRACERS_advScheme = /* Advection Scheme */
(PID.TID 0000.0001)                      33
(PID.TID 0000.0001)     ;
(PID.TID 0000.0001) PTRACERS_SOM_Advection = /* tracer uses SOM advection scheme */
(PID.TID 0000.0001)                   F
(PID.TID 0000.0001)     ;
(PID.TID 0000.0001) PTRACERS_ImplVertAdv = /* implicit vert. advection flag */
(PID.TID 0000.0001)                   F
(PID.TID 0000.0001)     ;
(PID.TID 0000.0001) PTRACERS_MultiDimAdv = /* tracer uses Multi-Dim advection */
(PID.TID 0000.0001)                   T
(PID.TID 0000.0001)     ;
(PID.TID 0000.0001) PTRACERS_AdamsBashGtr = /* apply AB on tracer tendency */
(PID.TID 0000.0001)                   F
(PID.TID 0000.0001)     ;
(PID.TID 0000.0001) PTRACERS_AdamsBash_Tr = /* apply AB on passive tracer */
(PID.TID 0000.0001)                   F
(PID.TID 0000.0001)     ;
(PID.TID 0000.0001) PTRACERS_diffKh = /* Laplacian Diffusivity */
(PID.TID 0000.0001)                 0.000000000000000E+00
(PID.TID 0000.0001)     ;
(PID.TID 0000.0001) PTRACERS_diffK4 = /* Biharmonic Diffusivity */
(PID.TID 0000.0001)                 0.000000000000000E+00
(PID.TID 0000.0001)     ;
(PID.TID 0000.0001) PTRACERS_diffKrNr = /* Vertical Diffusivity */
(PID.TID 0000.0001)    15 @  1.000000000000000E-05              /* K =  1: 15 */
(PID.TID 0000.0001)     ;
(PID.TID 0000.0001) PTRACERS_useGMRedi = /* apply GM-Redi */
(PID.TID 0000.0001)                   T
(PID.TID 0000.0001)     ;
(PID.TID 0000.0001) PTRACERS_useDWNSLP = /* apply DOWN-SLOPE Flow */
(PID.TID 0000.0001)                   F
(PID.TID 0000.0001)     ;
(PID.TID 0000.0001) PTRACERS_useKPP = /* apply KPP scheme */
(PID.TID 0000.0001)                   F
(PID.TID 0000.0001)     ;
(PID.TID 0000.0001) PTRACERS_ref = /* Reference vertical profile */
(PID.TID 0000.0001)    15 @  0.000000000000000E+00              /* K =  1: 15 */
(PID.TID 0000.0001)     ;
(PID.TID 0000.0001) PTRACERS_EvPrRn =/* tracer conc. in Evap. & Rain */
(PID.TID 0000.0001)                 1.234567000000000E+05
(PID.TID 0000.0001)     ;
(PID.TID 0000.0001)  -----------------------------------
(PID.TID 0000.0001)  tracer number :    8
(PID.TID 0000.0001) PTRACERS_names = /* Tracer short name */
(PID.TID 0000.0001)               'DOC'
(PID.TID 0000.0001)     ;
(PID.TID 0000.0001) PTRACERS_long_names = /* Tracer long name */
(PID.TID 0000.0001)               ''
(PID.TID 0000.0001)     ;
(PID.TID 0000.0001) PTRACERS_ioLabel = /* tracer IO Label */
(PID.TID 0000.0001)               '08'
(PID.TID 0000.0001)     ;
(PID.TID 0000.0001) PTRACERS_advScheme = /* Advection Scheme */
(PID.TID 0000.0001)                      33
(PID.TID 0000.0001)     ;
(PID.TID 0000.0001) PTRACERS_SOM_Advection = /* tracer uses SOM advection scheme */
(PID.TID 0000.0001)                   F
(PID.TID 0000.0001)     ;
(PID.TID 0000.0001) PTRACERS_ImplVertAdv = /* implicit vert. advection flag */
(PID.TID 0000.0001)                   F
(PID.TID 0000.0001)     ;
(PID.TID 0000.0001) PTRACERS_MultiDimAdv = /* tracer uses Multi-Dim advection */
(PID.TID 0000.0001)                   T
(PID.TID 0000.0001)     ;
(PID.TID 0000.0001) PTRACERS_AdamsBashGtr = /* apply AB on tracer tendency */
(PID.TID 0000.0001)                   F
(PID.TID 0000.0001)     ;
(PID.TID 0000.0001) PTRACERS_AdamsBash_Tr = /* apply AB on passive tracer */
(PID.TID 0000.0001)                   F
(PID.TID 0000.0001)     ;
(PID.TID 0000.0001) PTRACERS_diffKh = /* Laplacian Diffusivity */
(PID.TID 0000.0001)                 0.000000000000000E+00
(PID.TID 0000.0001)     ;
(PID.TID 0000.0001) PTRACERS_diffK4 = /* Biharmonic Diffusivity */
(PID.TID 0000.0001)                 0.000000000000000E+00
(PID.TID 0000.0001)     ;
(PID.TID 0000.0001) PTRACERS_diffKrNr = /* Vertical Diffusivity */
(PID.TID 0000.0001)    15 @  1.000000000000000E-05              /* K =  1: 15 */
(PID.TID 0000.0001)     ;
(PID.TID 0000.0001) PTRACERS_useGMRedi = /* apply GM-Redi */
(PID.TID 0000.0001)                   T
(PID.TID 0000.0001)     ;
(PID.TID 0000.0001) PTRACERS_useDWNSLP = /* apply DOWN-SLOPE Flow */
(PID.TID 0000.0001)                   F
(PID.TID 0000.0001)     ;
(PID.TID 0000.0001) PTRACERS_useKPP = /* apply KPP scheme */
(PID.TID 0000.0001)                   F
(PID.TID 0000.0001)     ;
(PID.TID 0000.0001) PTRACERS_ref = /* Reference vertical profile */
(PID.TID 0000.0001)    15 @  0.000000000000000E+00              /* K =  1: 15 */
(PID.TID 0000.0001)     ;
(PID.TID 0000.0001) PTRACERS_EvPrRn =/* tracer conc. in Evap. & Rain */
(PID.TID 0000.0001)                 1.234567000000000E+05
(PID.TID 0000.0001)     ;
(PID.TID 0000.0001)  -----------------------------------
(PID.TID 0000.0001)  tracer number :    9
(PID.TID 0000.0001) PTRACERS_names = /* Tracer short name */
(PID.TID 0000.0001)               'DON'
(PID.TID 0000.0001)     ;
(PID.TID 0000.0001) PTRACERS_long_names = /* Tracer long name */
(PID.TID 0000.0001)               ''
(PID.TID 0000.0001)     ;
(PID.TID 0000.0001) PTRACERS_ioLabel = /* tracer IO Label */
(PID.TID 0000.0001)               '09'
(PID.TID 0000.0001)     ;
(PID.TID 0000.0001) PTRACERS_advScheme = /* Advection Scheme */
(PID.TID 0000.0001)                      33
(PID.TID 0000.0001)     ;
(PID.TID 0000.0001) PTRACERS_SOM_Advection = /* tracer uses SOM advection scheme */
(PID.TID 0000.0001)                   F
(PID.TID 0000.0001)     ;
(PID.TID 0000.0001) PTRACERS_ImplVertAdv = /* implicit vert. advection flag */
(PID.TID 0000.0001)                   F
(PID.TID 0000.0001)     ;
(PID.TID 0000.0001) PTRACERS_MultiDimAdv = /* tracer uses Multi-Dim advection */
(PID.TID 0000.0001)                   T
(PID.TID 0000.0001)     ;
(PID.TID 0000.0001) PTRACERS_AdamsBashGtr = /* apply AB on tracer tendency */
(PID.TID 0000.0001)                   F
(PID.TID 0000.0001)     ;
(PID.TID 0000.0001) PTRACERS_AdamsBash_Tr = /* apply AB on passive tracer */
(PID.TID 0000.0001)                   F
(PID.TID 0000.0001)     ;
(PID.TID 0000.0001) PTRACERS_diffKh = /* Laplacian Diffusivity */
(PID.TID 0000.0001)                 0.000000000000000E+00
(PID.TID 0000.0001)     ;
(PID.TID 0000.0001) PTRACERS_diffK4 = /* Biharmonic Diffusivity */
(PID.TID 0000.0001)                 0.000000000000000E+00
(PID.TID 0000.0001)     ;
(PID.TID 0000.0001) PTRACERS_diffKrNr = /* Vertical Diffusivity */
(PID.TID 0000.0001)    15 @  1.000000000000000E-05              /* K =  1: 15 */
(PID.TID 0000.0001)     ;
(PID.TID 0000.0001) PTRACERS_useGMRedi = /* apply GM-Redi */
(PID.TID 0000.0001)                   T
(PID.TID 0000.0001)     ;
(PID.TID 0000.0001) PTRACERS_useDWNSLP = /* apply DOWN-SLOPE Flow */
(PID.TID 0000.0001)                   F
(PID.TID 0000.0001)     ;
(PID.TID 0000.0001) PTRACERS_useKPP = /* apply KPP scheme */
(PID.TID 0000.0001)                   F
(PID.TID 0000.0001)     ;
(PID.TID 0000.0001) PTRACERS_ref = /* Reference vertical profile */
(PID.TID 0000.0001)    15 @  0.000000000000000E+00              /* K =  1: 15 */
(PID.TID 0000.0001)     ;
(PID.TID 0000.0001) PTRACERS_EvPrRn =/* tracer conc. in Evap. & Rain */
(PID.TID 0000.0001)                 1.234567000000000E+05
(PID.TID 0000.0001)     ;
(PID.TID 0000.0001)  -----------------------------------
(PID.TID 0000.0001)  tracer number :   10
(PID.TID 0000.0001) PTRACERS_names = /* Tracer short name */
(PID.TID 0000.0001)               'DOP'
(PID.TID 0000.0001)     ;
(PID.TID 0000.0001) PTRACERS_long_names = /* Tracer long name */
(PID.TID 0000.0001)               ''
(PID.TID 0000.0001)     ;
(PID.TID 0000.0001) PTRACERS_ioLabel = /* tracer IO Label */
(PID.TID 0000.0001)               '10'
(PID.TID 0000.0001)     ;
(PID.TID 0000.0001) PTRACERS_advScheme = /* Advection Scheme */
(PID.TID 0000.0001)                      33
(PID.TID 0000.0001)     ;
(PID.TID 0000.0001) PTRACERS_SOM_Advection = /* tracer uses SOM advection scheme */
(PID.TID 0000.0001)                   F
(PID.TID 0000.0001)     ;
(PID.TID 0000.0001) PTRACERS_ImplVertAdv = /* implicit vert. advection flag */
(PID.TID 0000.0001)                   F
(PID.TID 0000.0001)     ;
(PID.TID 0000.0001) PTRACERS_MultiDimAdv = /* tracer uses Multi-Dim advection */
(PID.TID 0000.0001)                   T
(PID.TID 0000.0001)     ;
(PID.TID 0000.0001) PTRACERS_AdamsBashGtr = /* apply AB on tracer tendency */
(PID.TID 0000.0001)                   F
(PID.TID 0000.0001)     ;
(PID.TID 0000.0001) PTRACERS_AdamsBash_Tr = /* apply AB on passive tracer */
(PID.TID 0000.0001)                   F
(PID.TID 0000.0001)     ;
(PID.TID 0000.0001) PTRACERS_diffKh = /* Laplacian Diffusivity */
(PID.TID 0000.0001)                 0.000000000000000E+00
(PID.TID 0000.0001)     ;
(PID.TID 0000.0001) PTRACERS_diffK4 = /* Biharmonic Diffusivity */
(PID.TID 0000.0001)                 0.000000000000000E+00
(PID.TID 0000.0001)     ;
(PID.TID 0000.0001) PTRACERS_diffKrNr = /* Vertical Diffusivity */
(PID.TID 0000.0001)    15 @  1.000000000000000E-05              /* K =  1: 15 */
(PID.TID 0000.0001)     ;
(PID.TID 0000.0001) PTRACERS_useGMRedi = /* apply GM-Redi */
(PID.TID 0000.0001)                   T
(PID.TID 0000.0001)     ;
(PID.TID 0000.0001) PTRACERS_useDWNSLP = /* apply DOWN-SLOPE Flow */
(PID.TID 0000.0001)                   F
(PID.TID 0000.0001)     ;
(PID.TID 0000.0001) PTRACERS_useKPP = /* apply KPP scheme */
(PID.TID 0000.0001)                   F
(PID.TID 0000.0001)     ;
(PID.TID 0000.0001) PTRACERS_ref = /* Reference vertical profile */
(PID.TID 0000.0001)    15 @  0.000000000000000E+00              /* K =  1: 15 */
(PID.TID 0000.0001)     ;
(PID.TID 0000.0001) PTRACERS_EvPrRn =/* tracer conc. in Evap. & Rain */
(PID.TID 0000.0001)                 1.234567000000000E+05
(PID.TID 0000.0001)     ;
(PID.TID 0000.0001)  -----------------------------------
(PID.TID 0000.0001)  tracer number :   11
(PID.TID 0000.0001) PTRACERS_names = /* Tracer short name */
(PID.TID 0000.0001)               'DOFe'
(PID.TID 0000.0001)     ;
(PID.TID 0000.0001) PTRACERS_long_names = /* Tracer long name */
(PID.TID 0000.0001)               ''
(PID.TID 0000.0001)     ;
(PID.TID 0000.0001) PTRACERS_ioLabel = /* tracer IO Label */
(PID.TID 0000.0001)               '11'
(PID.TID 0000.0001)     ;
(PID.TID 0000.0001) PTRACERS_advScheme = /* Advection Scheme */
(PID.TID 0000.0001)                      33
(PID.TID 0000.0001)     ;
(PID.TID 0000.0001) PTRACERS_SOM_Advection = /* tracer uses SOM advection scheme */
(PID.TID 0000.0001)                   F
(PID.TID 0000.0001)     ;
(PID.TID 0000.0001) PTRACERS_ImplVertAdv = /* implicit vert. advection flag */
(PID.TID 0000.0001)                   F
(PID.TID 0000.0001)     ;
(PID.TID 0000.0001) PTRACERS_MultiDimAdv = /* tracer uses Multi-Dim advection */
(PID.TID 0000.0001)                   T
(PID.TID 0000.0001)     ;
(PID.TID 0000.0001) PTRACERS_AdamsBashGtr = /* apply AB on tracer tendency */
(PID.TID 0000.0001)                   F
(PID.TID 0000.0001)     ;
(PID.TID 0000.0001) PTRACERS_AdamsBash_Tr = /* apply AB on passive tracer */
(PID.TID 0000.0001)                   F
(PID.TID 0000.0001)     ;
(PID.TID 0000.0001) PTRACERS_diffKh = /* Laplacian Diffusivity */
(PID.TID 0000.0001)                 0.000000000000000E+00
(PID.TID 0000.0001)     ;
(PID.TID 0000.0001) PTRACERS_diffK4 = /* Biharmonic Diffusivity */
(PID.TID 0000.0001)                 0.000000000000000E+00
(PID.TID 0000.0001)     ;
(PID.TID 0000.0001) PTRACERS_diffKrNr = /* Vertical Diffusivity */
(PID.TID 0000.0001)    15 @  1.000000000000000E-05              /* K =  1: 15 */
(PID.TID 0000.0001)     ;
(PID.TID 0000.0001) PTRACERS_useGMRedi = /* apply GM-Redi */
(PID.TID 0000.0001)                   T
(PID.TID 0000.0001)     ;
(PID.TID 0000.0001) PTRACERS_useDWNSLP = /* apply DOWN-SLOPE Flow */
(PID.TID 0000.0001)                   F
(PID.TID 0000.0001)     ;
(PID.TID 0000.0001) PTRACERS_useKPP = /* apply KPP scheme */
(PID.TID 0000.0001)                   F
(PID.TID 0000.0001)     ;
(PID.TID 0000.0001) PTRACERS_ref = /* Reference vertical profile */
(PID.TID 0000.0001)    15 @  0.000000000000000E+00              /* K =  1: 15 */
(PID.TID 0000.0001)     ;
(PID.TID 0000.0001) PTRACERS_EvPrRn =/* tracer conc. in Evap. & Rain */
(PID.TID 0000.0001)                 1.234567000000000E+05
(PID.TID 0000.0001)     ;
(PID.TID 0000.0001)  -----------------------------------
(PID.TID 0000.0001)  tracer number :   12
(PID.TID 0000.0001) PTRACERS_names = /* Tracer short name */
(PID.TID 0000.0001)               'POC'
(PID.TID 0000.0001)     ;
(PID.TID 0000.0001) PTRACERS_long_names = /* Tracer long name */
(PID.TID 0000.0001)               ''
(PID.TID 0000.0001)     ;
(PID.TID 0000.0001) PTRACERS_ioLabel = /* tracer IO Label */
(PID.TID 0000.0001)               '12'
(PID.TID 0000.0001)     ;
(PID.TID 0000.0001) PTRACERS_advScheme = /* Advection Scheme */
(PID.TID 0000.0001)                      33
(PID.TID 0000.0001)     ;
(PID.TID 0000.0001) PTRACERS_SOM_Advection = /* tracer uses SOM advection scheme */
(PID.TID 0000.0001)                   F
(PID.TID 0000.0001)     ;
(PID.TID 0000.0001) PTRACERS_ImplVertAdv = /* implicit vert. advection flag */
(PID.TID 0000.0001)                   F
(PID.TID 0000.0001)     ;
(PID.TID 0000.0001) PTRACERS_MultiDimAdv = /* tracer uses Multi-Dim advection */
(PID.TID 0000.0001)                   T
(PID.TID 0000.0001)     ;
(PID.TID 0000.0001) PTRACERS_AdamsBashGtr = /* apply AB on tracer tendency */
(PID.TID 0000.0001)                   F
(PID.TID 0000.0001)     ;
(PID.TID 0000.0001) PTRACERS_AdamsBash_Tr = /* apply AB on passive tracer */
(PID.TID 0000.0001)                   F
(PID.TID 0000.0001)     ;
(PID.TID 0000.0001) PTRACERS_diffKh = /* Laplacian Diffusivity */
(PID.TID 0000.0001)                 0.000000000000000E+00
(PID.TID 0000.0001)     ;
(PID.TID 0000.0001) PTRACERS_diffK4 = /* Biharmonic Diffusivity */
(PID.TID 0000.0001)                 0.000000000000000E+00
(PID.TID 0000.0001)     ;
(PID.TID 0000.0001) PTRACERS_diffKrNr = /* Vertical Diffusivity */
(PID.TID 0000.0001)    15 @  1.000000000000000E-05              /* K =  1: 15 */
(PID.TID 0000.0001)     ;
(PID.TID 0000.0001) PTRACERS_useGMRedi = /* apply GM-Redi */
(PID.TID 0000.0001)                   T
(PID.TID 0000.0001)     ;
(PID.TID 0000.0001) PTRACERS_useDWNSLP = /* apply DOWN-SLOPE Flow */
(PID.TID 0000.0001)                   F
(PID.TID 0000.0001)     ;
(PID.TID 0000.0001) PTRACERS_useKPP = /* apply KPP scheme */
(PID.TID 0000.0001)                   F
(PID.TID 0000.0001)     ;
(PID.TID 0000.0001) PTRACERS_ref = /* Reference vertical profile */
(PID.TID 0000.0001)    15 @  0.000000000000000E+00              /* K =  1: 15 */
(PID.TID 0000.0001)     ;
(PID.TID 0000.0001) PTRACERS_EvPrRn =/* tracer conc. in Evap. & Rain */
(PID.TID 0000.0001)                 1.234567000000000E+05
(PID.TID 0000.0001)     ;
(PID.TID 0000.0001)  -----------------------------------
(PID.TID 0000.0001)  tracer number :   13
(PID.TID 0000.0001) PTRACERS_names = /* Tracer short name */
(PID.TID 0000.0001)               'PON'
(PID.TID 0000.0001)     ;
(PID.TID 0000.0001) PTRACERS_long_names = /* Tracer long name */
(PID.TID 0000.0001)               ''
(PID.TID 0000.0001)     ;
(PID.TID 0000.0001) PTRACERS_ioLabel = /* tracer IO Label */
(PID.TID 0000.0001)               '13'
(PID.TID 0000.0001)     ;
(PID.TID 0000.0001) PTRACERS_advScheme = /* Advection Scheme */
(PID.TID 0000.0001)                      33
(PID.TID 0000.0001)     ;
(PID.TID 0000.0001) PTRACERS_SOM_Advection = /* tracer uses SOM advection scheme */
(PID.TID 0000.0001)                   F
(PID.TID 0000.0001)     ;
(PID.TID 0000.0001) PTRACERS_ImplVertAdv = /* implicit vert. advection flag */
(PID.TID 0000.0001)                   F
(PID.TID 0000.0001)     ;
(PID.TID 0000.0001) PTRACERS_MultiDimAdv = /* tracer uses Multi-Dim advection */
(PID.TID 0000.0001)                   T
(PID.TID 0000.0001)     ;
(PID.TID 0000.0001) PTRACERS_AdamsBashGtr = /* apply AB on tracer tendency */
(PID.TID 0000.0001)                   F
(PID.TID 0000.0001)     ;
(PID.TID 0000.0001) PTRACERS_AdamsBash_Tr = /* apply AB on passive tracer */
(PID.TID 0000.0001)                   F
(PID.TID 0000.0001)     ;
(PID.TID 0000.0001) PTRACERS_diffKh = /* Laplacian Diffusivity */
(PID.TID 0000.0001)                 0.000000000000000E+00
(PID.TID 0000.0001)     ;
(PID.TID 0000.0001) PTRACERS_diffK4 = /* Biharmonic Diffusivity */
(PID.TID 0000.0001)                 0.000000000000000E+00
(PID.TID 0000.0001)     ;
(PID.TID 0000.0001) PTRACERS_diffKrNr = /* Vertical Diffusivity */
(PID.TID 0000.0001)    15 @  1.000000000000000E-05              /* K =  1: 15 */
(PID.TID 0000.0001)     ;
(PID.TID 0000.0001) PTRACERS_useGMRedi = /* apply GM-Redi */
(PID.TID 0000.0001)                   T
(PID.TID 0000.0001)     ;
(PID.TID 0000.0001) PTRACERS_useDWNSLP = /* apply DOWN-SLOPE Flow */
(PID.TID 0000.0001)                   F
(PID.TID 0000.0001)     ;
(PID.TID 0000.0001) PTRACERS_useKPP = /* apply KPP scheme */
(PID.TID 0000.0001)                   F
(PID.TID 0000.0001)     ;
(PID.TID 0000.0001) PTRACERS_ref = /* Reference vertical profile */
(PID.TID 0000.0001)    15 @  0.000000000000000E+00              /* K =  1: 15 */
(PID.TID 0000.0001)     ;
(PID.TID 0000.0001) PTRACERS_EvPrRn =/* tracer conc. in Evap. & Rain */
(PID.TID 0000.0001)                 1.234567000000000E+05
(PID.TID 0000.0001)     ;
(PID.TID 0000.0001)  -----------------------------------
(PID.TID 0000.0001)  tracer number :   14
(PID.TID 0000.0001) PTRACERS_names = /* Tracer short name */
(PID.TID 0000.0001)               'POP'
(PID.TID 0000.0001)     ;
(PID.TID 0000.0001) PTRACERS_long_names = /* Tracer long name */
(PID.TID 0000.0001)               ''
(PID.TID 0000.0001)     ;
(PID.TID 0000.0001) PTRACERS_ioLabel = /* tracer IO Label */
(PID.TID 0000.0001)               '14'
(PID.TID 0000.0001)     ;
(PID.TID 0000.0001) PTRACERS_advScheme = /* Advection Scheme */
(PID.TID 0000.0001)                      33
(PID.TID 0000.0001)     ;
(PID.TID 0000.0001) PTRACERS_SOM_Advection = /* tracer uses SOM advection scheme */
(PID.TID 0000.0001)                   F
(PID.TID 0000.0001)     ;
(PID.TID 0000.0001) PTRACERS_ImplVertAdv = /* implicit vert. advection flag */
(PID.TID 0000.0001)                   F
(PID.TID 0000.0001)     ;
(PID.TID 0000.0001) PTRACERS_MultiDimAdv = /* tracer uses Multi-Dim advection */
(PID.TID 0000.0001)                   T
(PID.TID 0000.0001)     ;
(PID.TID 0000.0001) PTRACERS_AdamsBashGtr = /* apply AB on tracer tendency */
(PID.TID 0000.0001)                   F
(PID.TID 0000.0001)     ;
(PID.TID 0000.0001) PTRACERS_AdamsBash_Tr = /* apply AB on passive tracer */
(PID.TID 0000.0001)                   F
(PID.TID 0000.0001)     ;
(PID.TID 0000.0001) PTRACERS_diffKh = /* Laplacian Diffusivity */
(PID.TID 0000.0001)                 0.000000000000000E+00
(PID.TID 0000.0001)     ;
(PID.TID 0000.0001) PTRACERS_diffK4 = /* Biharmonic Diffusivity */
(PID.TID 0000.0001)                 0.000000000000000E+00
(PID.TID 0000.0001)     ;
(PID.TID 0000.0001) PTRACERS_diffKrNr = /* Vertical Diffusivity */
(PID.TID 0000.0001)    15 @  1.000000000000000E-05              /* K =  1: 15 */
(PID.TID 0000.0001)     ;
(PID.TID 0000.0001) PTRACERS_useGMRedi = /* apply GM-Redi */
(PID.TID 0000.0001)                   T
(PID.TID 0000.0001)     ;
(PID.TID 0000.0001) PTRACERS_useDWNSLP = /* apply DOWN-SLOPE Flow */
(PID.TID 0000.0001)                   F
(PID.TID 0000.0001)     ;
(PID.TID 0000.0001) PTRACERS_useKPP = /* apply KPP scheme */
(PID.TID 0000.0001)                   F
(PID.TID 0000.0001)     ;
(PID.TID 0000.0001) PTRACERS_ref = /* Reference vertical profile */
(PID.TID 0000.0001)    15 @  0.000000000000000E+00              /* K =  1: 15 */
(PID.TID 0000.0001)     ;
(PID.TID 0000.0001) PTRACERS_EvPrRn =/* tracer conc. in Evap. & Rain */
(PID.TID 0000.0001)                 1.234567000000000E+05
(PID.TID 0000.0001)     ;
(PID.TID 0000.0001)  -----------------------------------
(PID.TID 0000.0001)  tracer number :   15
(PID.TID 0000.0001) PTRACERS_names = /* Tracer short name */
(PID.TID 0000.0001)               'POFe'
(PID.TID 0000.0001)     ;
(PID.TID 0000.0001) PTRACERS_long_names = /* Tracer long name */
(PID.TID 0000.0001)               ''
(PID.TID 0000.0001)     ;
(PID.TID 0000.0001) PTRACERS_ioLabel = /* tracer IO Label */
(PID.TID 0000.0001)               '15'
(PID.TID 0000.0001)     ;
(PID.TID 0000.0001) PTRACERS_advScheme = /* Advection Scheme */
(PID.TID 0000.0001)                      33
(PID.TID 0000.0001)     ;
(PID.TID 0000.0001) PTRACERS_SOM_Advection = /* tracer uses SOM advection scheme */
(PID.TID 0000.0001)                   F
(PID.TID 0000.0001)     ;
(PID.TID 0000.0001) PTRACERS_ImplVertAdv = /* implicit vert. advection flag */
(PID.TID 0000.0001)                   F
(PID.TID 0000.0001)     ;
(PID.TID 0000.0001) PTRACERS_MultiDimAdv = /* tracer uses Multi-Dim advection */
(PID.TID 0000.0001)                   T
(PID.TID 0000.0001)     ;
(PID.TID 0000.0001) PTRACERS_AdamsBashGtr = /* apply AB on tracer tendency */
(PID.TID 0000.0001)                   F
(PID.TID 0000.0001)     ;
(PID.TID 0000.0001) PTRACERS_AdamsBash_Tr = /* apply AB on passive tracer */
(PID.TID 0000.0001)                   F
(PID.TID 0000.0001)     ;
(PID.TID 0000.0001) PTRACERS_diffKh = /* Laplacian Diffusivity */
(PID.TID 0000.0001)                 0.000000000000000E+00
(PID.TID 0000.0001)     ;
(PID.TID 0000.0001) PTRACERS_diffK4 = /* Biharmonic Diffusivity */
(PID.TID 0000.0001)                 0.000000000000000E+00
(PID.TID 0000.0001)     ;
(PID.TID 0000.0001) PTRACERS_diffKrNr = /* Vertical Diffusivity */
(PID.TID 0000.0001)    15 @  1.000000000000000E-05              /* K =  1: 15 */
(PID.TID 0000.0001)     ;
(PID.TID 0000.0001) PTRACERS_useGMRedi = /* apply GM-Redi */
(PID.TID 0000.0001)                   T
(PID.TID 0000.0001)     ;
(PID.TID 0000.0001) PTRACERS_useDWNSLP = /* apply DOWN-SLOPE Flow */
(PID.TID 0000.0001)                   F
(PID.TID 0000.0001)     ;
(PID.TID 0000.0001) PTRACERS_useKPP = /* apply KPP scheme */
(PID.TID 0000.0001)                   F
(PID.TID 0000.0001)     ;
(PID.TID 0000.0001) PTRACERS_ref = /* Reference vertical profile */
(PID.TID 0000.0001)    15 @  0.000000000000000E+00              /* K =  1: 15 */
(PID.TID 0000.0001)     ;
(PID.TID 0000.0001) PTRACERS_EvPrRn =/* tracer conc. in Evap. & Rain */
(PID.TID 0000.0001)                 1.234567000000000E+05
(PID.TID 0000.0001)     ;
(PID.TID 0000.0001)  -----------------------------------
(PID.TID 0000.0001)  tracer number :   16
(PID.TID 0000.0001) PTRACERS_names = /* Tracer short name */
(PID.TID 0000.0001)               'POSi'
(PID.TID 0000.0001)     ;
(PID.TID 0000.0001) PTRACERS_long_names = /* Tracer long name */
(PID.TID 0000.0001)               ''
(PID.TID 0000.0001)     ;
(PID.TID 0000.0001) PTRACERS_ioLabel = /* tracer IO Label */
(PID.TID 0000.0001)               '16'
(PID.TID 0000.0001)     ;
(PID.TID 0000.0001) PTRACERS_advScheme = /* Advection Scheme */
(PID.TID 0000.0001)                      33
(PID.TID 0000.0001)     ;
(PID.TID 0000.0001) PTRACERS_SOM_Advection = /* tracer uses SOM advection scheme */
(PID.TID 0000.0001)                   F
(PID.TID 0000.0001)     ;
(PID.TID 0000.0001) PTRACERS_ImplVertAdv = /* implicit vert. advection flag */
(PID.TID 0000.0001)                   F
(PID.TID 0000.0001)     ;
(PID.TID 0000.0001) PTRACERS_MultiDimAdv = /* tracer uses Multi-Dim advection */
(PID.TID 0000.0001)                   T
(PID.TID 0000.0001)     ;
(PID.TID 0000.0001) PTRACERS_AdamsBashGtr = /* apply AB on tracer tendency */
(PID.TID 0000.0001)                   F
(PID.TID 0000.0001)     ;
(PID.TID 0000.0001) PTRACERS_AdamsBash_Tr = /* apply AB on passive tracer */
(PID.TID 0000.0001)                   F
(PID.TID 0000.0001)     ;
(PID.TID 0000.0001) PTRACERS_diffKh = /* Laplacian Diffusivity */
(PID.TID 0000.0001)                 0.000000000000000E+00
(PID.TID 0000.0001)     ;
(PID.TID 0000.0001) PTRACERS_diffK4 = /* Biharmonic Diffusivity */
(PID.TID 0000.0001)                 0.000000000000000E+00
(PID.TID 0000.0001)     ;
(PID.TID 0000.0001) PTRACERS_diffKrNr = /* Vertical Diffusivity */
(PID.TID 0000.0001)    15 @  1.000000000000000E-05              /* K =  1: 15 */
(PID.TID 0000.0001)     ;
(PID.TID 0000.0001) PTRACERS_useGMRedi = /* apply GM-Redi */
(PID.TID 0000.0001)                   T
(PID.TID 0000.0001)     ;
(PID.TID 0000.0001) PTRACERS_useDWNSLP = /* apply DOWN-SLOPE Flow */
(PID.TID 0000.0001)                   F
(PID.TID 0000.0001)     ;
(PID.TID 0000.0001) PTRACERS_useKPP = /* apply KPP scheme */
(PID.TID 0000.0001)                   F
(PID.TID 0000.0001)     ;
(PID.TID 0000.0001) PTRACERS_ref = /* Reference vertical profile */
(PID.TID 0000.0001)    15 @  0.000000000000000E+00              /* K =  1: 15 */
(PID.TID 0000.0001)     ;
(PID.TID 0000.0001) PTRACERS_EvPrRn =/* tracer conc. in Evap. & Rain */
(PID.TID 0000.0001)                 1.234567000000000E+05
(PID.TID 0000.0001)     ;
(PID.TID 0000.0001)  -----------------------------------
(PID.TID 0000.0001)  tracer number :   17
(PID.TID 0000.0001) PTRACERS_names = /* Tracer short name */
(PID.TID 0000.0001)               'PIC'
(PID.TID 0000.0001)     ;
(PID.TID 0000.0001) PTRACERS_long_names = /* Tracer long name */
(PID.TID 0000.0001)               ''
(PID.TID 0000.0001)     ;
(PID.TID 0000.0001) PTRACERS_ioLabel = /* tracer IO Label */
(PID.TID 0000.0001)               '17'
(PID.TID 0000.0001)     ;
(PID.TID 0000.0001) PTRACERS_advScheme = /* Advection Scheme */
(PID.TID 0000.0001)                      33
(PID.TID 0000.0001)     ;
(PID.TID 0000.0001) PTRACERS_SOM_Advection = /* tracer uses SOM advection scheme */
(PID.TID 0000.0001)                   F
(PID.TID 0000.0001)     ;
(PID.TID 0000.0001) PTRACERS_ImplVertAdv = /* implicit vert. advection flag */
(PID.TID 0000.0001)                   F
(PID.TID 0000.0001)     ;
(PID.TID 0000.0001) PTRACERS_MultiDimAdv = /* tracer uses Multi-Dim advection */
(PID.TID 0000.0001)                   T
(PID.TID 0000.0001)     ;
(PID.TID 0000.0001) PTRACERS_AdamsBashGtr = /* apply AB on tracer tendency */
(PID.TID 0000.0001)                   F
(PID.TID 0000.0001)     ;
(PID.TID 0000.0001) PTRACERS_AdamsBash_Tr = /* apply AB on passive tracer */
(PID.TID 0000.0001)                   F
(PID.TID 0000.0001)     ;
(PID.TID 0000.0001) PTRACERS_diffKh = /* Laplacian Diffusivity */
(PID.TID 0000.0001)                 0.000000000000000E+00
(PID.TID 0000.0001)     ;
(PID.TID 0000.0001) PTRACERS_diffK4 = /* Biharmonic Diffusivity */
(PID.TID 0000.0001)                 0.000000000000000E+00
(PID.TID 0000.0001)     ;
(PID.TID 0000.0001) PTRACERS_diffKrNr = /* Vertical Diffusivity */
(PID.TID 0000.0001)    15 @  1.000000000000000E-05              /* K =  1: 15 */
(PID.TID 0000.0001)     ;
(PID.TID 0000.0001) PTRACERS_useGMRedi = /* apply GM-Redi */
(PID.TID 0000.0001)                   T
(PID.TID 0000.0001)     ;
(PID.TID 0000.0001) PTRACERS_useDWNSLP = /* apply DOWN-SLOPE Flow */
(PID.TID 0000.0001)                   F
(PID.TID 0000.0001)     ;
(PID.TID 0000.0001) PTRACERS_useKPP = /* apply KPP scheme */
(PID.TID 0000.0001)                   F
(PID.TID 0000.0001)     ;
(PID.TID 0000.0001) PTRACERS_ref = /* Reference vertical profile */
(PID.TID 0000.0001)    15 @  0.000000000000000E+00              /* K =  1: 15 */
(PID.TID 0000.0001)     ;
(PID.TID 0000.0001) PTRACERS_EvPrRn =/* tracer conc. in Evap. & Rain */
(PID.TID 0000.0001)                 1.234567000000000E+05
(PID.TID 0000.0001)     ;
(PID.TID 0000.0001)  -----------------------------------
(PID.TID 0000.0001)  tracer number :   18
(PID.TID 0000.0001) PTRACERS_names = /* Tracer short name */
(PID.TID 0000.0001)               'ALK'
(PID.TID 0000.0001)     ;
(PID.TID 0000.0001) PTRACERS_long_names = /* Tracer long name */
(PID.TID 0000.0001)               ''
(PID.TID 0000.0001)     ;
(PID.TID 0000.0001) PTRACERS_ioLabel = /* tracer IO Label */
(PID.TID 0000.0001)               '18'
(PID.TID 0000.0001)     ;
(PID.TID 0000.0001) PTRACERS_advScheme = /* Advection Scheme */
(PID.TID 0000.0001)                      33
(PID.TID 0000.0001)     ;
(PID.TID 0000.0001) PTRACERS_SOM_Advection = /* tracer uses SOM advection scheme */
(PID.TID 0000.0001)                   F
(PID.TID 0000.0001)     ;
(PID.TID 0000.0001) PTRACERS_ImplVertAdv = /* implicit vert. advection flag */
(PID.TID 0000.0001)                   F
(PID.TID 0000.0001)     ;
(PID.TID 0000.0001) PTRACERS_MultiDimAdv = /* tracer uses Multi-Dim advection */
(PID.TID 0000.0001)                   T
(PID.TID 0000.0001)     ;
(PID.TID 0000.0001) PTRACERS_AdamsBashGtr = /* apply AB on tracer tendency */
(PID.TID 0000.0001)                   F
(PID.TID 0000.0001)     ;
(PID.TID 0000.0001) PTRACERS_AdamsBash_Tr = /* apply AB on passive tracer */
(PID.TID 0000.0001)                   F
(PID.TID 0000.0001)     ;
(PID.TID 0000.0001) PTRACERS_diffKh = /* Laplacian Diffusivity */
(PID.TID 0000.0001)                 0.000000000000000E+00
(PID.TID 0000.0001)     ;
(PID.TID 0000.0001) PTRACERS_diffK4 = /* Biharmonic Diffusivity */
(PID.TID 0000.0001)                 0.000000000000000E+00
(PID.TID 0000.0001)     ;
(PID.TID 0000.0001) PTRACERS_diffKrNr = /* Vertical Diffusivity */
(PID.TID 0000.0001)    15 @  1.000000000000000E-05              /* K =  1: 15 */
(PID.TID 0000.0001)     ;
(PID.TID 0000.0001) PTRACERS_useGMRedi = /* apply GM-Redi */
(PID.TID 0000.0001)                   T
(PID.TID 0000.0001)     ;
(PID.TID 0000.0001) PTRACERS_useDWNSLP = /* apply DOWN-SLOPE Flow */
(PID.TID 0000.0001)                   F
(PID.TID 0000.0001)     ;
(PID.TID 0000.0001) PTRACERS_useKPP = /* apply KPP scheme */
(PID.TID 0000.0001)                   F
(PID.TID 0000.0001)     ;
(PID.TID 0000.0001) PTRACERS_ref = /* Reference vertical profile */
(PID.TID 0000.0001)    15 @  0.000000000000000E+00              /* K =  1: 15 */
(PID.TID 0000.0001)     ;
(PID.TID 0000.0001) PTRACERS_EvPrRn =/* tracer conc. in Evap. & Rain */
(PID.TID 0000.0001)                 0.000000000000000E+00
(PID.TID 0000.0001)     ;
(PID.TID 0000.0001)  -----------------------------------
(PID.TID 0000.0001)  tracer number :   19
(PID.TID 0000.0001) PTRACERS_names = /* Tracer short name */
(PID.TID 0000.0001)               'O2'
(PID.TID 0000.0001)     ;
(PID.TID 0000.0001) PTRACERS_long_names = /* Tracer long name */
(PID.TID 0000.0001)               ''
(PID.TID 0000.0001)     ;
(PID.TID 0000.0001) PTRACERS_ioLabel = /* tracer IO Label */
(PID.TID 0000.0001)               '19'
(PID.TID 0000.0001)     ;
(PID.TID 0000.0001) PTRACERS_advScheme = /* Advection Scheme */
(PID.TID 0000.0001)                      33
(PID.TID 0000.0001)     ;
(PID.TID 0000.0001) PTRACERS_SOM_Advection = /* tracer uses SOM advection scheme */
(PID.TID 0000.0001)                   F
(PID.TID 0000.0001)     ;
(PID.TID 0000.0001) PTRACERS_ImplVertAdv = /* implicit vert. advection flag */
(PID.TID 0000.0001)                   F
(PID.TID 0000.0001)     ;
(PID.TID 0000.0001) PTRACERS_MultiDimAdv = /* tracer uses Multi-Dim advection */
(PID.TID 0000.0001)                   T
(PID.TID 0000.0001)     ;
(PID.TID 0000.0001) PTRACERS_AdamsBashGtr = /* apply AB on tracer tendency */
(PID.TID 0000.0001)                   F
(PID.TID 0000.0001)     ;
(PID.TID 0000.0001) PTRACERS_AdamsBash_Tr = /* apply AB on passive tracer */
(PID.TID 0000.0001)                   F
(PID.TID 0000.0001)     ;
(PID.TID 0000.0001) PTRACERS_diffKh = /* Laplacian Diffusivity */
(PID.TID 0000.0001)                 0.000000000000000E+00
(PID.TID 0000.0001)     ;
(PID.TID 0000.0001) PTRACERS_diffK4 = /* Biharmonic Diffusivity */
(PID.TID 0000.0001)                 0.000000000000000E+00
(PID.TID 0000.0001)     ;
(PID.TID 0000.0001) PTRACERS_diffKrNr = /* Vertical Diffusivity */
(PID.TID 0000.0001)    15 @  1.000000000000000E-05              /* K =  1: 15 */
(PID.TID 0000.0001)     ;
(PID.TID 0000.0001) PTRACERS_useGMRedi = /* apply GM-Redi */
(PID.TID 0000.0001)                   T
(PID.TID 0000.0001)     ;
(PID.TID 0000.0001) PTRACERS_useDWNSLP = /* apply DOWN-SLOPE Flow */
(PID.TID 0000.0001)                   F
(PID.TID 0000.0001)     ;
(PID.TID 0000.0001) PTRACERS_useKPP = /* apply KPP scheme */
(PID.TID 0000.0001)                   F
(PID.TID 0000.0001)     ;
(PID.TID 0000.0001) PTRACERS_ref = /* Reference vertical profile */
(PID.TID 0000.0001)    15 @  0.000000000000000E+00              /* K =  1: 15 */
(PID.TID 0000.0001)     ;
(PID.TID 0000.0001) PTRACERS_EvPrRn =/* tracer conc. in Evap. & Rain */
(PID.TID 0000.0001)                 1.234567000000000E+05
(PID.TID 0000.0001)     ;
(PID.TID 0000.0001)  -----------------------------------
(PID.TID 0000.0001)  tracer number :   20
(PID.TID 0000.0001) PTRACERS_names = /* Tracer short name */
(PID.TID 0000.0001)               'c01'
(PID.TID 0000.0001)     ;
(PID.TID 0000.0001) PTRACERS_long_names = /* Tracer long name */
(PID.TID 0000.0001)               ''
(PID.TID 0000.0001)     ;
(PID.TID 0000.0001) PTRACERS_ioLabel = /* tracer IO Label */
(PID.TID 0000.0001)               '20'
(PID.TID 0000.0001)     ;
(PID.TID 0000.0001) PTRACERS_advScheme = /* Advection Scheme */
(PID.TID 0000.0001)                      33
(PID.TID 0000.0001)     ;
(PID.TID 0000.0001) PTRACERS_SOM_Advection = /* tracer uses SOM advection scheme */
(PID.TID 0000.0001)                   F
(PID.TID 0000.0001)     ;
(PID.TID 0000.0001) PTRACERS_ImplVertAdv = /* implicit vert. advection flag */
(PID.TID 0000.0001)                   F
(PID.TID 0000.0001)     ;
(PID.TID 0000.0001) PTRACERS_MultiDimAdv = /* tracer uses Multi-Dim advection */
(PID.TID 0000.0001)                   T
(PID.TID 0000.0001)     ;
(PID.TID 0000.0001) PTRACERS_AdamsBashGtr = /* apply AB on tracer tendency */
(PID.TID 0000.0001)                   F
(PID.TID 0000.0001)     ;
(PID.TID 0000.0001) PTRACERS_AdamsBash_Tr = /* apply AB on passive tracer */
(PID.TID 0000.0001)                   F
(PID.TID 0000.0001)     ;
(PID.TID 0000.0001) PTRACERS_diffKh = /* Laplacian Diffusivity */
(PID.TID 0000.0001)                 0.000000000000000E+00
(PID.TID 0000.0001)     ;
(PID.TID 0000.0001) PTRACERS_diffK4 = /* Biharmonic Diffusivity */
(PID.TID 0000.0001)                 0.000000000000000E+00
(PID.TID 0000.0001)     ;
(PID.TID 0000.0001) PTRACERS_diffKrNr = /* Vertical Diffusivity */
(PID.TID 0000.0001)    15 @  1.000000000000000E-05              /* K =  1: 15 */
(PID.TID 0000.0001)     ;
(PID.TID 0000.0001) PTRACERS_useGMRedi = /* apply GM-Redi */
(PID.TID 0000.0001)                   T
(PID.TID 0000.0001)     ;
(PID.TID 0000.0001) PTRACERS_useDWNSLP = /* apply DOWN-SLOPE Flow */
(PID.TID 0000.0001)                   F
(PID.TID 0000.0001)     ;
(PID.TID 0000.0001) PTRACERS_useKPP = /* apply KPP scheme */
(PID.TID 0000.0001)                   F
(PID.TID 0000.0001)     ;
(PID.TID 0000.0001) PTRACERS_ref = /* Reference vertical profile */
(PID.TID 0000.0001)    15 @  0.000000000000000E+00              /* K =  1: 15 */
(PID.TID 0000.0001)     ;
(PID.TID 0000.0001) PTRACERS_EvPrRn =/* tracer conc. in Evap. & Rain */
(PID.TID 0000.0001)                 1.234567000000000E+05
(PID.TID 0000.0001)     ;
(PID.TID 0000.0001)  -----------------------------------
(PID.TID 0000.0001)  tracer number :   21
(PID.TID 0000.0001) PTRACERS_names = /* Tracer short name */
(PID.TID 0000.0001)               'c02'
(PID.TID 0000.0001)     ;
(PID.TID 0000.0001) PTRACERS_long_names = /* Tracer long name */
(PID.TID 0000.0001)               ''
(PID.TID 0000.0001)     ;
(PID.TID 0000.0001) PTRACERS_ioLabel = /* tracer IO Label */
(PID.TID 0000.0001)               '21'
(PID.TID 0000.0001)     ;
(PID.TID 0000.0001) PTRACERS_advScheme = /* Advection Scheme */
(PID.TID 0000.0001)                      33
(PID.TID 0000.0001)     ;
(PID.TID 0000.0001) PTRACERS_SOM_Advection = /* tracer uses SOM advection scheme */
(PID.TID 0000.0001)                   F
(PID.TID 0000.0001)     ;
(PID.TID 0000.0001) PTRACERS_ImplVertAdv = /* implicit vert. advection flag */
(PID.TID 0000.0001)                   F
(PID.TID 0000.0001)     ;
(PID.TID 0000.0001) PTRACERS_MultiDimAdv = /* tracer uses Multi-Dim advection */
(PID.TID 0000.0001)                   T
(PID.TID 0000.0001)     ;
(PID.TID 0000.0001) PTRACERS_AdamsBashGtr = /* apply AB on tracer tendency */
(PID.TID 0000.0001)                   F
(PID.TID 0000.0001)     ;
(PID.TID 0000.0001) PTRACERS_AdamsBash_Tr = /* apply AB on passive tracer */
(PID.TID 0000.0001)                   F
(PID.TID 0000.0001)     ;
(PID.TID 0000.0001) PTRACERS_diffKh = /* Laplacian Diffusivity */
(PID.TID 0000.0001)                 0.000000000000000E+00
(PID.TID 0000.0001)     ;
(PID.TID 0000.0001) PTRACERS_diffK4 = /* Biharmonic Diffusivity */
(PID.TID 0000.0001)                 0.000000000000000E+00
(PID.TID 0000.0001)     ;
(PID.TID 0000.0001) PTRACERS_diffKrNr = /* Vertical Diffusivity */
(PID.TID 0000.0001)    15 @  1.000000000000000E-05              /* K =  1: 15 */
(PID.TID 0000.0001)     ;
(PID.TID 0000.0001) PTRACERS_useGMRedi = /* apply GM-Redi */
(PID.TID 0000.0001)                   T
(PID.TID 0000.0001)     ;
(PID.TID 0000.0001) PTRACERS_useDWNSLP = /* apply DOWN-SLOPE Flow */
(PID.TID 0000.0001)                   F
(PID.TID 0000.0001)     ;
(PID.TID 0000.0001) PTRACERS_useKPP = /* apply KPP scheme */
(PID.TID 0000.0001)                   F
(PID.TID 0000.0001)     ;
(PID.TID 0000.0001) PTRACERS_ref = /* Reference vertical profile */
(PID.TID 0000.0001)    15 @  0.000000000000000E+00              /* K =  1: 15 */
(PID.TID 0000.0001)     ;
(PID.TID 0000.0001) PTRACERS_EvPrRn =/* tracer conc. in Evap. & Rain */
(PID.TID 0000.0001)                 1.234567000000000E+05
(PID.TID 0000.0001)     ;
(PID.TID 0000.0001)  -----------------------------------
(PID.TID 0000.0001)  tracer number :   22
(PID.TID 0000.0001) PTRACERS_names = /* Tracer short name */
(PID.TID 0000.0001)               'c03'
(PID.TID 0000.0001)     ;
(PID.TID 0000.0001) PTRACERS_long_names = /* Tracer long name */
(PID.TID 0000.0001)               ''
(PID.TID 0000.0001)     ;
(PID.TID 0000.0001) PTRACERS_ioLabel = /* tracer IO Label */
(PID.TID 0000.0001)               '22'
(PID.TID 0000.0001)     ;
(PID.TID 0000.0001) PTRACERS_advScheme = /* Advection Scheme */
(PID.TID 0000.0001)                      33
(PID.TID 0000.0001)     ;
(PID.TID 0000.0001) PTRACERS_SOM_Advection = /* tracer uses SOM advection scheme */
(PID.TID 0000.0001)                   F
(PID.TID 0000.0001)     ;
(PID.TID 0000.0001) PTRACERS_ImplVertAdv = /* implicit vert. advection flag */
(PID.TID 0000.0001)                   F
(PID.TID 0000.0001)     ;
(PID.TID 0000.0001) PTRACERS_MultiDimAdv = /* tracer uses Multi-Dim advection */
(PID.TID 0000.0001)                   T
(PID.TID 0000.0001)     ;
(PID.TID 0000.0001) PTRACERS_AdamsBashGtr = /* apply AB on tracer tendency */
(PID.TID 0000.0001)                   F
(PID.TID 0000.0001)     ;
(PID.TID 0000.0001) PTRACERS_AdamsBash_Tr = /* apply AB on passive tracer */
(PID.TID 0000.0001)                   F
(PID.TID 0000.0001)     ;
(PID.TID 0000.0001) PTRACERS_diffKh = /* Laplacian Diffusivity */
(PID.TID 0000.0001)                 0.000000000000000E+00
(PID.TID 0000.0001)     ;
(PID.TID 0000.0001) PTRACERS_diffK4 = /* Biharmonic Diffusivity */
(PID.TID 0000.0001)                 0.000000000000000E+00
(PID.TID 0000.0001)     ;
(PID.TID 0000.0001) PTRACERS_diffKrNr = /* Vertical Diffusivity */
(PID.TID 0000.0001)    15 @  1.000000000000000E-05              /* K =  1: 15 */
(PID.TID 0000.0001)     ;
(PID.TID 0000.0001) PTRACERS_useGMRedi = /* apply GM-Redi */
(PID.TID 0000.0001)                   T
(PID.TID 0000.0001)     ;
(PID.TID 0000.0001) PTRACERS_useDWNSLP = /* apply DOWN-SLOPE Flow */
(PID.TID 0000.0001)                   F
(PID.TID 0000.0001)     ;
(PID.TID 0000.0001) PTRACERS_useKPP = /* apply KPP scheme */
(PID.TID 0000.0001)                   F
(PID.TID 0000.0001)     ;
(PID.TID 0000.0001) PTRACERS_ref = /* Reference vertical profile */
(PID.TID 0000.0001)    15 @  0.000000000000000E+00              /* K =  1: 15 */
(PID.TID 0000.0001)     ;
(PID.TID 0000.0001) PTRACERS_EvPrRn =/* tracer conc. in Evap. & Rain */
(PID.TID 0000.0001)                 1.234567000000000E+05
(PID.TID 0000.0001)     ;
(PID.TID 0000.0001)  -----------------------------------
(PID.TID 0000.0001)  tracer number :   23
(PID.TID 0000.0001) PTRACERS_names = /* Tracer short name */
(PID.TID 0000.0001)               'c04'
(PID.TID 0000.0001)     ;
(PID.TID 0000.0001) PTRACERS_long_names = /* Tracer long name */
(PID.TID 0000.0001)               ''
(PID.TID 0000.0001)     ;
(PID.TID 0000.0001) PTRACERS_ioLabel = /* tracer IO Label */
(PID.TID 0000.0001)               '23'
(PID.TID 0000.0001)     ;
(PID.TID 0000.0001) PTRACERS_advScheme = /* Advection Scheme */
(PID.TID 0000.0001)                      33
(PID.TID 0000.0001)     ;
(PID.TID 0000.0001) PTRACERS_SOM_Advection = /* tracer uses SOM advection scheme */
(PID.TID 0000.0001)                   F
(PID.TID 0000.0001)     ;
(PID.TID 0000.0001) PTRACERS_ImplVertAdv = /* implicit vert. advection flag */
(PID.TID 0000.0001)                   F
(PID.TID 0000.0001)     ;
(PID.TID 0000.0001) PTRACERS_MultiDimAdv = /* tracer uses Multi-Dim advection */
(PID.TID 0000.0001)                   T
(PID.TID 0000.0001)     ;
(PID.TID 0000.0001) PTRACERS_AdamsBashGtr = /* apply AB on tracer tendency */
(PID.TID 0000.0001)                   F
(PID.TID 0000.0001)     ;
(PID.TID 0000.0001) PTRACERS_AdamsBash_Tr = /* apply AB on passive tracer */
(PID.TID 0000.0001)                   F
(PID.TID 0000.0001)     ;
(PID.TID 0000.0001) PTRACERS_diffKh = /* Laplacian Diffusivity */
(PID.TID 0000.0001)                 0.000000000000000E+00
(PID.TID 0000.0001)     ;
(PID.TID 0000.0001) PTRACERS_diffK4 = /* Biharmonic Diffusivity */
(PID.TID 0000.0001)                 0.000000000000000E+00
(PID.TID 0000.0001)     ;
(PID.TID 0000.0001) PTRACERS_diffKrNr = /* Vertical Diffusivity */
(PID.TID 0000.0001)    15 @  1.000000000000000E-05              /* K =  1: 15 */
(PID.TID 0000.0001)     ;
(PID.TID 0000.0001) PTRACERS_useGMRedi = /* apply GM-Redi */
(PID.TID 0000.0001)                   T
(PID.TID 0000.0001)     ;
(PID.TID 0000.0001) PTRACERS_useDWNSLP = /* apply DOWN-SLOPE Flow */
(PID.TID 0000.0001)                   F
(PID.TID 0000.0001)     ;
(PID.TID 0000.0001) PTRACERS_useKPP = /* apply KPP scheme */
(PID.TID 0000.0001)                   F
(PID.TID 0000.0001)     ;
(PID.TID 0000.0001) PTRACERS_ref = /* Reference vertical profile */
(PID.TID 0000.0001)    15 @  0.000000000000000E+00              /* K =  1: 15 */
(PID.TID 0000.0001)     ;
(PID.TID 0000.0001) PTRACERS_EvPrRn =/* tracer conc. in Evap. & Rain */
(PID.TID 0000.0001)                 1.234567000000000E+05
(PID.TID 0000.0001)     ;
(PID.TID 0000.0001)  -----------------------------------
(PID.TID 0000.0001)  tracer number :   24
(PID.TID 0000.0001) PTRACERS_names = /* Tracer short name */
(PID.TID 0000.0001)               'c05'
(PID.TID 0000.0001)     ;
(PID.TID 0000.0001) PTRACERS_long_names = /* Tracer long name */
(PID.TID 0000.0001)               ''
(PID.TID 0000.0001)     ;
(PID.TID 0000.0001) PTRACERS_ioLabel = /* tracer IO Label */
(PID.TID 0000.0001)               '24'
(PID.TID 0000.0001)     ;
(PID.TID 0000.0001) PTRACERS_advScheme = /* Advection Scheme */
(PID.TID 0000.0001)                      33
(PID.TID 0000.0001)     ;
(PID.TID 0000.0001) PTRACERS_SOM_Advection = /* tracer uses SOM advection scheme */
(PID.TID 0000.0001)                   F
(PID.TID 0000.0001)     ;
(PID.TID 0000.0001) PTRACERS_ImplVertAdv = /* implicit vert. advection flag */
(PID.TID 0000.0001)                   F
(PID.TID 0000.0001)     ;
(PID.TID 0000.0001) PTRACERS_MultiDimAdv = /* tracer uses Multi-Dim advection */
(PID.TID 0000.0001)                   T
(PID.TID 0000.0001)     ;
(PID.TID 0000.0001) PTRACERS_AdamsBashGtr = /* apply AB on tracer tendency */
(PID.TID 0000.0001)                   F
(PID.TID 0000.0001)     ;
(PID.TID 0000.0001) PTRACERS_AdamsBash_Tr = /* apply AB on passive tracer */
(PID.TID 0000.0001)                   F
(PID.TID 0000.0001)     ;
(PID.TID 0000.0001) PTRACERS_diffKh = /* Laplacian Diffusivity */
(PID.TID 0000.0001)                 0.000000000000000E+00
(PID.TID 0000.0001)     ;
(PID.TID 0000.0001) PTRACERS_diffK4 = /* Biharmonic Diffusivity */
(PID.TID 0000.0001)                 0.000000000000000E+00
(PID.TID 0000.0001)     ;
(PID.TID 0000.0001) PTRACERS_diffKrNr = /* Vertical Diffusivity */
(PID.TID 0000.0001)    15 @  1.000000000000000E-05              /* K =  1: 15 */
(PID.TID 0000.0001)     ;
(PID.TID 0000.0001) PTRACERS_useGMRedi = /* apply GM-Redi */
(PID.TID 0000.0001)                   T
(PID.TID 0000.0001)     ;
(PID.TID 0000.0001) PTRACERS_useDWNSLP = /* apply DOWN-SLOPE Flow */
(PID.TID 0000.0001)                   F
(PID.TID 0000.0001)     ;
(PID.TID 0000.0001) PTRACERS_useKPP = /* apply KPP scheme */
(PID.TID 0000.0001)                   F
(PID.TID 0000.0001)     ;
(PID.TID 0000.0001) PTRACERS_ref = /* Reference vertical profile */
(PID.TID 0000.0001)    15 @  0.000000000000000E+00              /* K =  1: 15 */
(PID.TID 0000.0001)     ;
(PID.TID 0000.0001) PTRACERS_EvPrRn =/* tracer conc. in Evap. & Rain */
(PID.TID 0000.0001)                 1.234567000000000E+05
(PID.TID 0000.0001)     ;
(PID.TID 0000.0001)  -----------------------------------
(PID.TID 0000.0001)  tracer number :   25
(PID.TID 0000.0001) PTRACERS_names = /* Tracer short name */
(PID.TID 0000.0001)               'c06'
(PID.TID 0000.0001)     ;
(PID.TID 0000.0001) PTRACERS_long_names = /* Tracer long name */
(PID.TID 0000.0001)               ''
(PID.TID 0000.0001)     ;
(PID.TID 0000.0001) PTRACERS_ioLabel = /* tracer IO Label */
(PID.TID 0000.0001)               '25'
(PID.TID 0000.0001)     ;
(PID.TID 0000.0001) PTRACERS_advScheme = /* Advection Scheme */
(PID.TID 0000.0001)                      33
(PID.TID 0000.0001)     ;
(PID.TID 0000.0001) PTRACERS_SOM_Advection = /* tracer uses SOM advection scheme */
(PID.TID 0000.0001)                   F
(PID.TID 0000.0001)     ;
(PID.TID 0000.0001) PTRACERS_ImplVertAdv = /* implicit vert. advection flag */
(PID.TID 0000.0001)                   F
(PID.TID 0000.0001)     ;
(PID.TID 0000.0001) PTRACERS_MultiDimAdv = /* tracer uses Multi-Dim advection */
(PID.TID 0000.0001)                   T
(PID.TID 0000.0001)     ;
(PID.TID 0000.0001) PTRACERS_AdamsBashGtr = /* apply AB on tracer tendency */
(PID.TID 0000.0001)                   F
(PID.TID 0000.0001)     ;
(PID.TID 0000.0001) PTRACERS_AdamsBash_Tr = /* apply AB on passive tracer */
(PID.TID 0000.0001)                   F
(PID.TID 0000.0001)     ;
(PID.TID 0000.0001) PTRACERS_diffKh = /* Laplacian Diffusivity */
(PID.TID 0000.0001)                 0.000000000000000E+00
(PID.TID 0000.0001)     ;
(PID.TID 0000.0001) PTRACERS_diffK4 = /* Biharmonic Diffusivity */
(PID.TID 0000.0001)                 0.000000000000000E+00
(PID.TID 0000.0001)     ;
(PID.TID 0000.0001) PTRACERS_diffKrNr = /* Vertical Diffusivity */
(PID.TID 0000.0001)    15 @  1.000000000000000E-05              /* K =  1: 15 */
(PID.TID 0000.0001)     ;
(PID.TID 0000.0001) PTRACERS_useGMRedi = /* apply GM-Redi */
(PID.TID 0000.0001)                   T
(PID.TID 0000.0001)     ;
(PID.TID 0000.0001) PTRACERS_useDWNSLP = /* apply DOWN-SLOPE Flow */
(PID.TID 0000.0001)                   F
(PID.TID 0000.0001)     ;
(PID.TID 0000.0001) PTRACERS_useKPP = /* apply KPP scheme */
(PID.TID 0000.0001)                   F
(PID.TID 0000.0001)     ;
(PID.TID 0000.0001) PTRACERS_ref = /* Reference vertical profile */
(PID.TID 0000.0001)    15 @  0.000000000000000E+00              /* K =  1: 15 */
(PID.TID 0000.0001)     ;
(PID.TID 0000.0001) PTRACERS_EvPrRn =/* tracer conc. in Evap. & Rain */
(PID.TID 0000.0001)                 1.234567000000000E+05
(PID.TID 0000.0001)     ;
(PID.TID 0000.0001)  -----------------------------------
(PID.TID 0000.0001)  tracer number :   26
(PID.TID 0000.0001) PTRACERS_names = /* Tracer short name */
(PID.TID 0000.0001)               'c07'
(PID.TID 0000.0001)     ;
(PID.TID 0000.0001) PTRACERS_long_names = /* Tracer long name */
(PID.TID 0000.0001)               ''
(PID.TID 0000.0001)     ;
(PID.TID 0000.0001) PTRACERS_ioLabel = /* tracer IO Label */
(PID.TID 0000.0001)               '26'
(PID.TID 0000.0001)     ;
(PID.TID 0000.0001) PTRACERS_advScheme = /* Advection Scheme */
(PID.TID 0000.0001)                      33
(PID.TID 0000.0001)     ;
(PID.TID 0000.0001) PTRACERS_SOM_Advection = /* tracer uses SOM advection scheme */
(PID.TID 0000.0001)                   F
(PID.TID 0000.0001)     ;
(PID.TID 0000.0001) PTRACERS_ImplVertAdv = /* implicit vert. advection flag */
(PID.TID 0000.0001)                   F
(PID.TID 0000.0001)     ;
(PID.TID 0000.0001) PTRACERS_MultiDimAdv = /* tracer uses Multi-Dim advection */
(PID.TID 0000.0001)                   T
(PID.TID 0000.0001)     ;
(PID.TID 0000.0001) PTRACERS_AdamsBashGtr = /* apply AB on tracer tendency */
(PID.TID 0000.0001)                   F
(PID.TID 0000.0001)     ;
(PID.TID 0000.0001) PTRACERS_AdamsBash_Tr = /* apply AB on passive tracer */
(PID.TID 0000.0001)                   F
(PID.TID 0000.0001)     ;
(PID.TID 0000.0001) PTRACERS_diffKh = /* Laplacian Diffusivity */
(PID.TID 0000.0001)                 0.000000000000000E+00
(PID.TID 0000.0001)     ;
(PID.TID 0000.0001) PTRACERS_diffK4 = /* Biharmonic Diffusivity */
(PID.TID 0000.0001)                 0.000000000000000E+00
(PID.TID 0000.0001)     ;
(PID.TID 0000.0001) PTRACERS_diffKrNr = /* Vertical Diffusivity */
(PID.TID 0000.0001)    15 @  1.000000000000000E-05              /* K =  1: 15 */
(PID.TID 0000.0001)     ;
(PID.TID 0000.0001) PTRACERS_useGMRedi = /* apply GM-Redi */
(PID.TID 0000.0001)                   T
(PID.TID 0000.0001)     ;
(PID.TID 0000.0001) PTRACERS_useDWNSLP = /* apply DOWN-SLOPE Flow */
(PID.TID 0000.0001)                   F
(PID.TID 0000.0001)     ;
(PID.TID 0000.0001) PTRACERS_useKPP = /* apply KPP scheme */
(PID.TID 0000.0001)                   F
(PID.TID 0000.0001)     ;
(PID.TID 0000.0001) PTRACERS_ref = /* Reference vertical profile */
(PID.TID 0000.0001)    15 @  0.000000000000000E+00              /* K =  1: 15 */
(PID.TID 0000.0001)     ;
(PID.TID 0000.0001) PTRACERS_EvPrRn =/* tracer conc. in Evap. & Rain */
(PID.TID 0000.0001)                 1.234567000000000E+05
(PID.TID 0000.0001)     ;
(PID.TID 0000.0001)  -----------------------------------
(PID.TID 0000.0001)  tracer number :   27
(PID.TID 0000.0001) PTRACERS_names = /* Tracer short name */
(PID.TID 0000.0001)               'Chl01'
(PID.TID 0000.0001)     ;
(PID.TID 0000.0001) PTRACERS_long_names = /* Tracer long name */
(PID.TID 0000.0001)               ''
(PID.TID 0000.0001)     ;
(PID.TID 0000.0001) PTRACERS_ioLabel = /* tracer IO Label */
(PID.TID 0000.0001)               '27'
(PID.TID 0000.0001)     ;
(PID.TID 0000.0001) PTRACERS_advScheme = /* Advection Scheme */
(PID.TID 0000.0001)                      33
(PID.TID 0000.0001)     ;
(PID.TID 0000.0001) PTRACERS_SOM_Advection = /* tracer uses SOM advection scheme */
(PID.TID 0000.0001)                   F
(PID.TID 0000.0001)     ;
(PID.TID 0000.0001) PTRACERS_ImplVertAdv = /* implicit vert. advection flag */
(PID.TID 0000.0001)                   F
(PID.TID 0000.0001)     ;
(PID.TID 0000.0001) PTRACERS_MultiDimAdv = /* tracer uses Multi-Dim advection */
(PID.TID 0000.0001)                   T
(PID.TID 0000.0001)     ;
(PID.TID 0000.0001) PTRACERS_AdamsBashGtr = /* apply AB on tracer tendency */
(PID.TID 0000.0001)                   F
(PID.TID 0000.0001)     ;
(PID.TID 0000.0001) PTRACERS_AdamsBash_Tr = /* apply AB on passive tracer */
(PID.TID 0000.0001)                   F
(PID.TID 0000.0001)     ;
(PID.TID 0000.0001) PTRACERS_diffKh = /* Laplacian Diffusivity */
(PID.TID 0000.0001)                 0.000000000000000E+00
(PID.TID 0000.0001)     ;
(PID.TID 0000.0001) PTRACERS_diffK4 = /* Biharmonic Diffusivity */
(PID.TID 0000.0001)                 0.000000000000000E+00
(PID.TID 0000.0001)     ;
(PID.TID 0000.0001) PTRACERS_diffKrNr = /* Vertical Diffusivity */
(PID.TID 0000.0001)    15 @  1.000000000000000E-05              /* K =  1: 15 */
(PID.TID 0000.0001)     ;
(PID.TID 0000.0001) PTRACERS_useGMRedi = /* apply GM-Redi */
(PID.TID 0000.0001)                   T
(PID.TID 0000.0001)     ;
(PID.TID 0000.0001) PTRACERS_useDWNSLP = /* apply DOWN-SLOPE Flow */
(PID.TID 0000.0001)                   F
(PID.TID 0000.0001)     ;
(PID.TID 0000.0001) PTRACERS_useKPP = /* apply KPP scheme */
(PID.TID 0000.0001)                   F
(PID.TID 0000.0001)     ;
(PID.TID 0000.0001) PTRACERS_ref = /* Reference vertical profile */
(PID.TID 0000.0001)    15 @  0.000000000000000E+00              /* K =  1: 15 */
(PID.TID 0000.0001)     ;
(PID.TID 0000.0001) PTRACERS_EvPrRn =/* tracer conc. in Evap. & Rain */
(PID.TID 0000.0001)                 1.234567000000000E+05
(PID.TID 0000.0001)     ;
(PID.TID 0000.0001)  -----------------------------------
(PID.TID 0000.0001)  tracer number :   28
(PID.TID 0000.0001) PTRACERS_names = /* Tracer short name */
(PID.TID 0000.0001)               'Chl02'
(PID.TID 0000.0001)     ;
(PID.TID 0000.0001) PTRACERS_long_names = /* Tracer long name */
(PID.TID 0000.0001)               ''
(PID.TID 0000.0001)     ;
(PID.TID 0000.0001) PTRACERS_ioLabel = /* tracer IO Label */
(PID.TID 0000.0001)               '28'
(PID.TID 0000.0001)     ;
(PID.TID 0000.0001) PTRACERS_advScheme = /* Advection Scheme */
(PID.TID 0000.0001)                      33
(PID.TID 0000.0001)     ;
(PID.TID 0000.0001) PTRACERS_SOM_Advection = /* tracer uses SOM advection scheme */
(PID.TID 0000.0001)                   F
(PID.TID 0000.0001)     ;
(PID.TID 0000.0001) PTRACERS_ImplVertAdv = /* implicit vert. advection flag */
(PID.TID 0000.0001)                   F
(PID.TID 0000.0001)     ;
(PID.TID 0000.0001) PTRACERS_MultiDimAdv = /* tracer uses Multi-Dim advection */
(PID.TID 0000.0001)                   T
(PID.TID 0000.0001)     ;
(PID.TID 0000.0001) PTRACERS_AdamsBashGtr = /* apply AB on tracer tendency */
(PID.TID 0000.0001)                   F
(PID.TID 0000.0001)     ;
(PID.TID 0000.0001) PTRACERS_AdamsBash_Tr = /* apply AB on passive tracer */
(PID.TID 0000.0001)                   F
(PID.TID 0000.0001)     ;
(PID.TID 0000.0001) PTRACERS_diffKh = /* Laplacian Diffusivity */
(PID.TID 0000.0001)                 0.000000000000000E+00
(PID.TID 0000.0001)     ;
(PID.TID 0000.0001) PTRACERS_diffK4 = /* Biharmonic Diffusivity */
(PID.TID 0000.0001)                 0.000000000000000E+00
(PID.TID 0000.0001)     ;
(PID.TID 0000.0001) PTRACERS_diffKrNr = /* Vertical Diffusivity */
(PID.TID 0000.0001)    15 @  1.000000000000000E-05              /* K =  1: 15 */
(PID.TID 0000.0001)     ;
(PID.TID 0000.0001) PTRACERS_useGMRedi = /* apply GM-Redi */
(PID.TID 0000.0001)                   T
(PID.TID 0000.0001)     ;
(PID.TID 0000.0001) PTRACERS_useDWNSLP = /* apply DOWN-SLOPE Flow */
(PID.TID 0000.0001)                   F
(PID.TID 0000.0001)     ;
(PID.TID 0000.0001) PTRACERS_useKPP = /* apply KPP scheme */
(PID.TID 0000.0001)                   F
(PID.TID 0000.0001)     ;
(PID.TID 0000.0001) PTRACERS_ref = /* Reference vertical profile */
(PID.TID 0000.0001)    15 @  0.000000000000000E+00              /* K =  1: 15 */
(PID.TID 0000.0001)     ;
(PID.TID 0000.0001) PTRACERS_EvPrRn =/* tracer conc. in Evap. & Rain */
(PID.TID 0000.0001)                 1.234567000000000E+05
(PID.TID 0000.0001)     ;
(PID.TID 0000.0001)  -----------------------------------
(PID.TID 0000.0001)  tracer number :   29
(PID.TID 0000.0001) PTRACERS_names = /* Tracer short name */
(PID.TID 0000.0001)               'Chl03'
(PID.TID 0000.0001)     ;
(PID.TID 0000.0001) PTRACERS_long_names = /* Tracer long name */
(PID.TID 0000.0001)               ''
(PID.TID 0000.0001)     ;
(PID.TID 0000.0001) PTRACERS_ioLabel = /* tracer IO Label */
(PID.TID 0000.0001)               '29'
(PID.TID 0000.0001)     ;
(PID.TID 0000.0001) PTRACERS_advScheme = /* Advection Scheme */
(PID.TID 0000.0001)                      33
(PID.TID 0000.0001)     ;
(PID.TID 0000.0001) PTRACERS_SOM_Advection = /* tracer uses SOM advection scheme */
(PID.TID 0000.0001)                   F
(PID.TID 0000.0001)     ;
(PID.TID 0000.0001) PTRACERS_ImplVertAdv = /* implicit vert. advection flag */
(PID.TID 0000.0001)                   F
(PID.TID 0000.0001)     ;
(PID.TID 0000.0001) PTRACERS_MultiDimAdv = /* tracer uses Multi-Dim advection */
(PID.TID 0000.0001)                   T
(PID.TID 0000.0001)     ;
(PID.TID 0000.0001) PTRACERS_AdamsBashGtr = /* apply AB on tracer tendency */
(PID.TID 0000.0001)                   F
(PID.TID 0000.0001)     ;
(PID.TID 0000.0001) PTRACERS_AdamsBash_Tr = /* apply AB on passive tracer */
(PID.TID 0000.0001)                   F
(PID.TID 0000.0001)     ;
(PID.TID 0000.0001) PTRACERS_diffKh = /* Laplacian Diffusivity */
(PID.TID 0000.0001)                 0.000000000000000E+00
(PID.TID 0000.0001)     ;
(PID.TID 0000.0001) PTRACERS_diffK4 = /* Biharmonic Diffusivity */
(PID.TID 0000.0001)                 0.000000000000000E+00
(PID.TID 0000.0001)     ;
(PID.TID 0000.0001) PTRACERS_diffKrNr = /* Vertical Diffusivity */
(PID.TID 0000.0001)    15 @  1.000000000000000E-05              /* K =  1: 15 */
(PID.TID 0000.0001)     ;
(PID.TID 0000.0001) PTRACERS_useGMRedi = /* apply GM-Redi */
(PID.TID 0000.0001)                   T
(PID.TID 0000.0001)     ;
(PID.TID 0000.0001) PTRACERS_useDWNSLP = /* apply DOWN-SLOPE Flow */
(PID.TID 0000.0001)                   F
(PID.TID 0000.0001)     ;
(PID.TID 0000.0001) PTRACERS_useKPP = /* apply KPP scheme */
(PID.TID 0000.0001)                   F
(PID.TID 0000.0001)     ;
(PID.TID 0000.0001) PTRACERS_ref = /* Reference vertical profile */
(PID.TID 0000.0001)    15 @  0.000000000000000E+00              /* K =  1: 15 */
(PID.TID 0000.0001)     ;
(PID.TID 0000.0001) PTRACERS_EvPrRn =/* tracer conc. in Evap. & Rain */
(PID.TID 0000.0001)                 1.234567000000000E+05
(PID.TID 0000.0001)     ;
(PID.TID 0000.0001)  -----------------------------------
(PID.TID 0000.0001)  tracer number :   30
(PID.TID 0000.0001) PTRACERS_names = /* Tracer short name */
(PID.TID 0000.0001)               'Chl04'
(PID.TID 0000.0001)     ;
(PID.TID 0000.0001) PTRACERS_long_names = /* Tracer long name */
(PID.TID 0000.0001)               ''
(PID.TID 0000.0001)     ;
(PID.TID 0000.0001) PTRACERS_ioLabel = /* tracer IO Label */
(PID.TID 0000.0001)               '30'
(PID.TID 0000.0001)     ;
(PID.TID 0000.0001) PTRACERS_advScheme = /* Advection Scheme */
(PID.TID 0000.0001)                      33
(PID.TID 0000.0001)     ;
(PID.TID 0000.0001) PTRACERS_SOM_Advection = /* tracer uses SOM advection scheme */
(PID.TID 0000.0001)                   F
(PID.TID 0000.0001)     ;
(PID.TID 0000.0001) PTRACERS_ImplVertAdv = /* implicit vert. advection flag */
(PID.TID 0000.0001)                   F
(PID.TID 0000.0001)     ;
(PID.TID 0000.0001) PTRACERS_MultiDimAdv = /* tracer uses Multi-Dim advection */
(PID.TID 0000.0001)                   T
(PID.TID 0000.0001)     ;
(PID.TID 0000.0001) PTRACERS_AdamsBashGtr = /* apply AB on tracer tendency */
(PID.TID 0000.0001)                   F
(PID.TID 0000.0001)     ;
(PID.TID 0000.0001) PTRACERS_AdamsBash_Tr = /* apply AB on passive tracer */
(PID.TID 0000.0001)                   F
(PID.TID 0000.0001)     ;
(PID.TID 0000.0001) PTRACERS_diffKh = /* Laplacian Diffusivity */
(PID.TID 0000.0001)                 0.000000000000000E+00
(PID.TID 0000.0001)     ;
(PID.TID 0000.0001) PTRACERS_diffK4 = /* Biharmonic Diffusivity */
(PID.TID 0000.0001)                 0.000000000000000E+00
(PID.TID 0000.0001)     ;
(PID.TID 0000.0001) PTRACERS_diffKrNr = /* Vertical Diffusivity */
(PID.TID 0000.0001)    15 @  1.000000000000000E-05              /* K =  1: 15 */
(PID.TID 0000.0001)     ;
(PID.TID 0000.0001) PTRACERS_useGMRedi = /* apply GM-Redi */
(PID.TID 0000.0001)                   T
(PID.TID 0000.0001)     ;
(PID.TID 0000.0001) PTRACERS_useDWNSLP = /* apply DOWN-SLOPE Flow */
(PID.TID 0000.0001)                   F
(PID.TID 0000.0001)     ;
(PID.TID 0000.0001) PTRACERS_useKPP = /* apply KPP scheme */
(PID.TID 0000.0001)                   F
(PID.TID 0000.0001)     ;
(PID.TID 0000.0001) PTRACERS_ref = /* Reference vertical profile */
(PID.TID 0000.0001)    15 @  0.000000000000000E+00              /* K =  1: 15 */
(PID.TID 0000.0001)     ;
(PID.TID 0000.0001) PTRACERS_EvPrRn =/* tracer conc. in Evap. & Rain */
(PID.TID 0000.0001)                 1.234567000000000E+05
(PID.TID 0000.0001)     ;
(PID.TID 0000.0001)  -----------------------------------
(PID.TID 0000.0001)  tracer number :   31
(PID.TID 0000.0001) PTRACERS_names = /* Tracer short name */
(PID.TID 0000.0001)               'Chl05'
(PID.TID 0000.0001)     ;
(PID.TID 0000.0001) PTRACERS_long_names = /* Tracer long name */
(PID.TID 0000.0001)               ''
(PID.TID 0000.0001)     ;
(PID.TID 0000.0001) PTRACERS_ioLabel = /* tracer IO Label */
(PID.TID 0000.0001)               '31'
(PID.TID 0000.0001)     ;
(PID.TID 0000.0001) PTRACERS_advScheme = /* Advection Scheme */
(PID.TID 0000.0001)                      33
(PID.TID 0000.0001)     ;
(PID.TID 0000.0001) PTRACERS_SOM_Advection = /* tracer uses SOM advection scheme */
(PID.TID 0000.0001)                   F
(PID.TID 0000.0001)     ;
(PID.TID 0000.0001) PTRACERS_ImplVertAdv = /* implicit vert. advection flag */
(PID.TID 0000.0001)                   F
(PID.TID 0000.0001)     ;
(PID.TID 0000.0001) PTRACERS_MultiDimAdv = /* tracer uses Multi-Dim advection */
(PID.TID 0000.0001)                   T
(PID.TID 0000.0001)     ;
(PID.TID 0000.0001) PTRACERS_AdamsBashGtr = /* apply AB on tracer tendency */
(PID.TID 0000.0001)                   F
(PID.TID 0000.0001)     ;
(PID.TID 0000.0001) PTRACERS_AdamsBash_Tr = /* apply AB on passive tracer */
(PID.TID 0000.0001)                   F
(PID.TID 0000.0001)     ;
(PID.TID 0000.0001) PTRACERS_diffKh = /* Laplacian Diffusivity */
(PID.TID 0000.0001)                 0.000000000000000E+00
(PID.TID 0000.0001)     ;
(PID.TID 0000.0001) PTRACERS_diffK4 = /* Biharmonic Diffusivity */
(PID.TID 0000.0001)                 0.000000000000000E+00
(PID.TID 0000.0001)     ;
(PID.TID 0000.0001) PTRACERS_diffKrNr = /* Vertical Diffusivity */
(PID.TID 0000.0001)    15 @  1.000000000000000E-05              /* K =  1: 15 */
(PID.TID 0000.0001)     ;
(PID.TID 0000.0001) PTRACERS_useGMRedi = /* apply GM-Redi */
(PID.TID 0000.0001)                   T
(PID.TID 0000.0001)     ;
(PID.TID 0000.0001) PTRACERS_useDWNSLP = /* apply DOWN-SLOPE Flow */
(PID.TID 0000.0001)                   F
(PID.TID 0000.0001)     ;
(PID.TID 0000.0001) PTRACERS_useKPP = /* apply KPP scheme */
(PID.TID 0000.0001)                   F
(PID.TID 0000.0001)     ;
(PID.TID 0000.0001) PTRACERS_ref = /* Reference vertical profile */
(PID.TID 0000.0001)    15 @  0.000000000000000E+00              /* K =  1: 15 */
(PID.TID 0000.0001)     ;
(PID.TID 0000.0001) PTRACERS_EvPrRn =/* tracer conc. in Evap. & Rain */
(PID.TID 0000.0001)                 1.234567000000000E+05
(PID.TID 0000.0001)     ;
(PID.TID 0000.0001)  -----------------------------------
(PID.TID 0000.0001) GCHEM_CHECK  --> Starts to check GCHEM set-up
(PID.TID 0000.0001) DARWIN_CHECK: #define ALLOW_DARWIN
(PID.TID 0000.0001) DARWIN_CHECK: iPtr darwin       PTRACERS_names
(PID.TID 0000.0001) DARWIN_CHECK:    1 DIC       DIC
(PID.TID 0000.0001) DARWIN_CHECK:    2 NO3       NO3
(PID.TID 0000.0001) DARWIN_CHECK:    3 NO2       NO2
(PID.TID 0000.0001) DARWIN_CHECK:    4 NH4       NH4
(PID.TID 0000.0001) DARWIN_CHECK:    5 PO4       PO4
(PID.TID 0000.0001) DARWIN_CHECK:    6 FeT       FeT
(PID.TID 0000.0001) DARWIN_CHECK:    7 SiO2      SiO2
(PID.TID 0000.0001) DARWIN_CHECK:    8 DOC       DOC
(PID.TID 0000.0001) DARWIN_CHECK:    9 DON       DON
(PID.TID 0000.0001) DARWIN_CHECK:   10 DOP       DOP
(PID.TID 0000.0001) DARWIN_CHECK:   11 DOFe      DOFe
(PID.TID 0000.0001) DARWIN_CHECK:   12 POC       POC
(PID.TID 0000.0001) DARWIN_CHECK:   13 PON       PON
(PID.TID 0000.0001) DARWIN_CHECK:   14 POP       POP
(PID.TID 0000.0001) DARWIN_CHECK:   15 POFe      POFe
(PID.TID 0000.0001) DARWIN_CHECK:   16 POSi      POSi
(PID.TID 0000.0001) DARWIN_CHECK:   17 PIC       PIC
(PID.TID 0000.0001) DARWIN_CHECK:   18 ALK       ALK
(PID.TID 0000.0001) DARWIN_CHECK:   19 O2        O2
(PID.TID 0000.0001) DARWIN_CHECK:   20 c       1 c01
(PID.TID 0000.0001) DARWIN_CHECK:   21 c       2 c02
(PID.TID 0000.0001) DARWIN_CHECK:   22 c       3 c03
(PID.TID 0000.0001) DARWIN_CHECK:   23 c       4 c04
(PID.TID 0000.0001) DARWIN_CHECK:   24 c       5 c05
(PID.TID 0000.0001) DARWIN_CHECK:   25 c       6 c06
(PID.TID 0000.0001) DARWIN_CHECK:   26 c       7 c07
(PID.TID 0000.0001) DARWIN_CHECK:   27 Chl     1 Chl01
(PID.TID 0000.0001) DARWIN_CHECK:   28 Chl     2 Chl02
(PID.TID 0000.0001) DARWIN_CHECK:   29 Chl     3 Chl03
(PID.TID 0000.0001) DARWIN_CHECK:   30 Chl     4 Chl04
(PID.TID 0000.0001) DARWIN_CHECK:   31 Chl     5 Chl05
(PID.TID 0000.0001) GCHEM_CHECK  <-- Ends Normally
(PID.TID 0000.0001) 
(PID.TID 0000.0001) SEAICE_CHECK: #define ALLOW_SEAICE
(PID.TID 0000.0001) SALT_PLUME_CHECK: #define SALT_PLUME
(PID.TID 0000.0001) GAD_CHECK: #define ALLOW_GENERIC_ADVDIFF
(PID.TID 0000.0001) // =======================================================
(PID.TID 0000.0001) // Check Model config. (CONFIG_CHECK):
(PID.TID 0000.0001) // CONFIG_CHECK : Normal End
(PID.TID 0000.0001) // =======================================================
(PID.TID 0000.0001) 
(PID.TID 0000.0001) Start initial hydrostatic pressure computation
(PID.TID 0000.0001) Pressure is predetermined for buoyancyRelation OCEANIC
(PID.TID 0000.0001) 
(PID.TID 0000.0001) // =======================================================
(PID.TID 0000.0001) // Model current state
(PID.TID 0000.0001) // =======================================================
(PID.TID 0000.0001) 
(PID.TID 0000.0001) // =======================================================
(PID.TID 0000.0001) // Begin MONITOR dynamic field statistics
(PID.TID 0000.0001) // =======================================================
(PID.TID 0000.0001) %MON time_tsnumber                =                     0
(PID.TID 0000.0001) %MON time_secondsf                =   0.0000000000000E+00
(PID.TID 0000.0001) %MON dynstat_eta_max              =   9.6649301052094E-01
(PID.TID 0000.0001) %MON dynstat_eta_min              =  -1.4782940149307E+00
(PID.TID 0000.0001) %MON dynstat_eta_mean             =   8.2172699007918E-11
(PID.TID 0000.0001) %MON dynstat_eta_sd               =   5.6496543245902E-01
(PID.TID 0000.0001) %MON dynstat_eta_del2             =   1.1653645959361E-03
(PID.TID 0000.0001) %MON dynstat_uvel_max             =   1.8991956114769E-01
(PID.TID 0000.0001) %MON dynstat_uvel_min             =  -2.3830120265484E-01
(PID.TID 0000.0001) %MON dynstat_uvel_mean            =   1.8626819111368E-03
(PID.TID 0000.0001) %MON dynstat_uvel_sd              =   1.3097479136525E-02
(PID.TID 0000.0001) %MON dynstat_uvel_del2            =   4.9141243639482E-05
(PID.TID 0000.0001) %MON dynstat_vvel_max             =   1.4902608096600E-01
(PID.TID 0000.0001) %MON dynstat_vvel_min             =  -2.1740870177746E-01
(PID.TID 0000.0001) %MON dynstat_vvel_mean            =  -1.6721930398932E-04
(PID.TID 0000.0001) %MON dynstat_vvel_sd              =   7.3033003353790E-03
(PID.TID 0000.0001) %MON dynstat_vvel_del2            =   3.8048381037259E-05
(PID.TID 0000.0001) %MON dynstat_wvel_max             =   5.2159217112031E-05
(PID.TID 0000.0001) %MON dynstat_wvel_min             =  -5.4365259087032E-05
(PID.TID 0000.0001) %MON dynstat_wvel_mean            =   5.6687287984734E-09
(PID.TID 0000.0001) %MON dynstat_wvel_sd              =   2.6141470227290E-06
(PID.TID 0000.0001) %MON dynstat_wvel_del2            =   1.7784559280488E-08
(PID.TID 0000.0001) %MON dynstat_theta_max            =   3.0246498107910E+01
(PID.TID 0000.0001) %MON dynstat_theta_min            =  -3.4675359725952E+00
(PID.TID 0000.0001) %MON dynstat_theta_mean           =   3.8023078178287E+00
(PID.TID 0000.0001) %MON dynstat_theta_sd             =   4.5124383136249E+00
(PID.TID 0000.0001) %MON dynstat_theta_del2           =   2.5990297133673E-03
(PID.TID 0000.0001) %MON dynstat_salt_max             =   3.7556854248047E+01
(PID.TID 0000.0001) %MON dynstat_salt_min             =   3.1484590530396E+01
(PID.TID 0000.0001) %MON dynstat_salt_mean            =   3.4614649757465E+01
(PID.TID 0000.0001) %MON dynstat_salt_sd              =   3.1408182851000E-01
(PID.TID 0000.0001) %MON dynstat_salt_del2            =   4.0546884730967E-04
(PID.TID 0000.0001) %MON dynstat_sst_max              =   3.0246498107910E+01
(PID.TID 0000.0001) %MON dynstat_sst_min              =  -1.9448651075363E+00
(PID.TID 0000.0001) %MON dynstat_sst_mean             =   1.8345457571571E+01
(PID.TID 0000.0001) %MON dynstat_sst_sd               =   9.2018893264542E+00
(PID.TID 0000.0001) %MON dynstat_sst_del2             =   1.4249703396244E-02
(PID.TID 0000.0001) %MON dynstat_sss_max              =   3.7556854248047E+01
(PID.TID 0000.0001) %MON dynstat_sss_min              =   3.1484590530396E+01
(PID.TID 0000.0001) %MON dynstat_sss_mean             =   3.4855842249011E+01
(PID.TID 0000.0001) %MON dynstat_sss_sd               =   9.5411463050709E-01
(PID.TID 0000.0001) %MON dynstat_sss_del2             =   3.0397386004787E-03
(PID.TID 0000.0001) %MON forcing_qnet_max             =   0.0000000000000E+00
(PID.TID 0000.0001) %MON forcing_qnet_min             =   0.0000000000000E+00
(PID.TID 0000.0001) %MON forcing_qnet_mean            =   0.0000000000000E+00
(PID.TID 0000.0001) %MON forcing_qnet_sd              =   0.0000000000000E+00
(PID.TID 0000.0001) %MON forcing_qnet_del2            =   0.0000000000000E+00
(PID.TID 0000.0001) %MON forcing_qsw_max              =   0.0000000000000E+00
(PID.TID 0000.0001) %MON forcing_qsw_min              =   0.0000000000000E+00
(PID.TID 0000.0001) %MON forcing_qsw_mean             =   0.0000000000000E+00
(PID.TID 0000.0001) %MON forcing_qsw_sd               =   0.0000000000000E+00
(PID.TID 0000.0001) %MON forcing_qsw_del2             =   0.0000000000000E+00
(PID.TID 0000.0001) %MON forcing_empmr_max            =   0.0000000000000E+00
(PID.TID 0000.0001) %MON forcing_empmr_min            =   0.0000000000000E+00
(PID.TID 0000.0001) %MON forcing_empmr_mean           =   0.0000000000000E+00
(PID.TID 0000.0001) %MON forcing_empmr_sd             =   0.0000000000000E+00
(PID.TID 0000.0001) %MON forcing_empmr_del2           =   0.0000000000000E+00
(PID.TID 0000.0001) %MON forcing_fu_max               =   0.0000000000000E+00
(PID.TID 0000.0001) %MON forcing_fu_min               =   0.0000000000000E+00
(PID.TID 0000.0001) %MON forcing_fu_mean              =   0.0000000000000E+00
(PID.TID 0000.0001) %MON forcing_fu_sd                =   0.0000000000000E+00
(PID.TID 0000.0001) %MON forcing_fu_del2              =   0.0000000000000E+00
(PID.TID 0000.0001) %MON forcing_fv_max               =   0.0000000000000E+00
(PID.TID 0000.0001) %MON forcing_fv_min               =   0.0000000000000E+00
(PID.TID 0000.0001) %MON forcing_fv_mean              =   0.0000000000000E+00
(PID.TID 0000.0001) %MON forcing_fv_sd                =   0.0000000000000E+00
(PID.TID 0000.0001) %MON forcing_fv_del2              =   0.0000000000000E+00
(PID.TID 0000.0001) %MON trAdv_CFL_u_max              =   0.0000000000000E+00
(PID.TID 0000.0001) %MON trAdv_CFL_v_max              =   0.0000000000000E+00
(PID.TID 0000.0001) %MON trAdv_CFL_w_max              =   0.0000000000000E+00
(PID.TID 0000.0001) %MON advcfl_uvel_max              =   9.2697847617167E-04
(PID.TID 0000.0001) %MON advcfl_vvel_max              =   8.3435109015287E-04
(PID.TID 0000.0001) %MON advcfl_wvel_max              =   3.6783529676873E-04
(PID.TID 0000.0001) %MON advcfl_W_hf_max              =   4.4136965745460E-04
(PID.TID 0000.0001) %MON pe_b_mean                    =   4.1138403908566E-04
(PID.TID 0000.0001) %MON ke_max                       =   3.1499011065346E-02
(PID.TID 0000.0001) %MON ke_mean                      =   1.0574367579183E-04
(PID.TID 0000.0001) %MON ke_vol                       =   1.2571476858570E+18
(PID.TID 0000.0001) %MON vort_r_min                   =  -9.2200320971920E-07
(PID.TID 0000.0001) %MON vort_r_max                   =   9.8870203226493E-07
(PID.TID 0000.0001) %MON vort_a_mean                  =  -2.4002453570027E-05
(PID.TID 0000.0001) %MON vort_a_sd                    =   7.3138176910933E-05
(PID.TID 0000.0001) %MON vort_p_mean                  =  -2.8585748876476E-05
(PID.TID 0000.0001) %MON vort_p_sd                    =   1.1454466829187E-04
(PID.TID 0000.0001) %MON surfExpan_theta_mean         =  -4.7000111275886E-22
(PID.TID 0000.0001) %MON surfExpan_salt_mean          =  -5.8310225683173E-22
(PID.TID 0000.0001) // =======================================================
(PID.TID 0000.0001) // End MONITOR dynamic field statistics
(PID.TID 0000.0001) // =======================================================
(PID.TID 0000.0001) // =======================================================
(PID.TID 0000.0001) // Begin MONITOR SEAICE statistics
(PID.TID 0000.0001) // =======================================================
(PID.TID 0000.0001) %MON seaice_tsnumber              =                     0
(PID.TID 0000.0001) %MON seaice_time_sec              =   0.0000000000000E+00
(PID.TID 0000.0001) %MON seaice_uice_max              =   0.0000000000000E+00
(PID.TID 0000.0001) %MON seaice_uice_min              =   0.0000000000000E+00
(PID.TID 0000.0001) %MON seaice_uice_mean             =   0.0000000000000E+00
(PID.TID 0000.0001) %MON seaice_uice_sd               =   0.0000000000000E+00
(PID.TID 0000.0001) %MON seaice_uice_del2             =   0.0000000000000E+00
(PID.TID 0000.0001) %MON seaice_vice_max              =   0.0000000000000E+00
(PID.TID 0000.0001) %MON seaice_vice_min              =   0.0000000000000E+00
(PID.TID 0000.0001) %MON seaice_vice_mean             =   0.0000000000000E+00
(PID.TID 0000.0001) %MON seaice_vice_sd               =   0.0000000000000E+00
(PID.TID 0000.0001) %MON seaice_vice_del2             =   0.0000000000000E+00
(PID.TID 0000.0001) %MON seaice_area_max              =   1.0000000000000E+00
(PID.TID 0000.0001) %MON seaice_area_min              =   0.0000000000000E+00
(PID.TID 0000.0001) %MON seaice_area_mean             =   4.9479677100906E-03
(PID.TID 0000.0001) %MON seaice_area_sd               =   7.0167551800178E-02
(PID.TID 0000.0001) %MON seaice_area_del2             =   2.0486695703045E-03
(PID.TID 0000.0001) %MON seaice_heff_max              =   1.0000000000000E+00
(PID.TID 0000.0001) %MON seaice_heff_min              =   0.0000000000000E+00
(PID.TID 0000.0001) %MON seaice_heff_mean             =   4.9479677100906E-03
(PID.TID 0000.0001) %MON seaice_heff_sd               =   7.0167551800178E-02
(PID.TID 0000.0001) %MON seaice_heff_del2             =   2.0486695703045E-03
(PID.TID 0000.0001) %MON seaice_hsnow_max             =   2.0000000000000E-01
(PID.TID 0000.0001) %MON seaice_hsnow_min             =   0.0000000000000E+00
(PID.TID 0000.0001) %MON seaice_hsnow_mean            =   9.8959354201813E-04
(PID.TID 0000.0001) %MON seaice_hsnow_sd              =   1.4033510360035E-02
(PID.TID 0000.0001) %MON seaice_hsnow_del2            =   4.0973391406091E-04
(PID.TID 0000.0001) // =======================================================
(PID.TID 0000.0001) // End MONITOR SEAICE statistics
(PID.TID 0000.0001) // =======================================================
(PID.TID 0000.0001) // =======================================================
(PID.TID 0000.0001) // Begin MONITOR ptracer field statistics
(PID.TID 0000.0001) // =======================================================
(PID.TID 0000.0001) %MON trcstat_ptracer01_max        =   2.4832258300781E+03
(PID.TID 0000.0001) %MON trcstat_ptracer01_min        =   0.0000000000000E+00
(PID.TID 0000.0001) %MON trcstat_ptracer01_mean       =   2.0930834788978E+03
(PID.TID 0000.0001) %MON trcstat_ptracer01_sd         =   6.9254081444472E+02
(PID.TID 0000.0001) %MON trcstat_ptracer01_del2       =   4.4014380458069E+00
(PID.TID 0000.0001) %MON trcstat_ptracer02_max        =   4.9807937622070E+01
(PID.TID 0000.0001) %MON trcstat_ptracer02_min        =  -4.7120399475098E+00
(PID.TID 0000.0001) %MON trcstat_ptracer02_mean       =   2.8998142487905E+01
(PID.TID 0000.0001) %MON trcstat_ptracer02_sd         =   1.2491566990413E+01
(PID.TID 0000.0001) %MON trcstat_ptracer02_del2       =   6.2430420461759E-02
(PID.TID 0000.0001) %MON trcstat_ptracer03_max        =   9.6659421920776E-01
(PID.TID 0000.0001) %MON trcstat_ptracer03_min        =  -6.2271784991026E-02
(PID.TID 0000.0001) %MON trcstat_ptracer03_mean       =   3.2375811071339E-03
(PID.TID 0000.0001) %MON trcstat_ptracer03_sd         =   2.3034295976493E-02
(PID.TID 0000.0001) %MON trcstat_ptracer03_del2       =   1.8612295679636E-04
(PID.TID 0000.0001) %MON trcstat_ptracer04_max        =   1.9460915029049E-01
(PID.TID 0000.0001) %MON trcstat_ptracer04_min        =  -4.2698802426457E-03
(PID.TID 0000.0001) %MON trcstat_ptracer04_mean       =   3.3641805202819E-04
(PID.TID 0000.0001) %MON trcstat_ptracer04_sd         =   2.7929814680160E-03
(PID.TID 0000.0001) %MON trcstat_ptracer04_del2       =   2.4965353645248E-05
(PID.TID 0000.0001) %MON trcstat_ptracer05_max        =   3.5612070560455E+00
(PID.TID 0000.0001) %MON trcstat_ptracer05_min        =  -3.9365422725677E-01
(PID.TID 0000.0001) %MON trcstat_ptracer05_mean       =   2.0337895869788E+00
(PID.TID 0000.0001) %MON trcstat_ptracer05_sd         =   8.8533828836339E-01
(PID.TID 0000.0001) %MON trcstat_ptracer05_del2       =   4.3560398085367E-03
(PID.TID 0000.0001) %MON trcstat_ptracer06_max        =   1.2169551337138E-03
(PID.TID 0000.0001) %MON trcstat_ptracer06_min        =  -1.0728086635936E-04
(PID.TID 0000.0001) %MON trcstat_ptracer06_mean       =   4.8886020055393E-04
(PID.TID 0000.0001) %MON trcstat_ptracer06_sd         =   1.9307455290782E-04
(PID.TID 0000.0001) %MON trcstat_ptracer06_del2       =   1.2617185647129E-06
(PID.TID 0000.0001) %MON trcstat_ptracer07_max        =   2.2760789489746E+02
(PID.TID 0000.0001) %MON trcstat_ptracer07_min        =  -8.7308359146118E+00
(PID.TID 0000.0001) %MON trcstat_ptracer07_mean       =   8.4966384524813E+01
(PID.TID 0000.0001) %MON trcstat_ptracer07_sd         =   5.5749135716191E+01
(PID.TID 0000.0001) %MON trcstat_ptracer07_del2       =   2.2100838812289E-01
(PID.TID 0000.0001) %MON trcstat_ptracer08_max        =   7.3318527221680E+01
(PID.TID 0000.0001) %MON trcstat_ptracer08_min        =  -3.8509786128998E+00
(PID.TID 0000.0001) %MON trcstat_ptracer08_mean       =   4.5142145401795E-01
(PID.TID 0000.0001) %MON trcstat_ptracer08_sd         =   3.1142661718327E+00
(PID.TID 0000.0001) %MON trcstat_ptracer08_del2       =   1.5579758257721E-02
(PID.TID 0000.0001) %MON trcstat_ptracer09_max        =   5.9770941734314E+00
(PID.TID 0000.0001) %MON trcstat_ptracer09_min        =  -2.8419083356857E-01
(PID.TID 0000.0001) %MON trcstat_ptracer09_mean       =   2.9611012959460E-02
(PID.TID 0000.0001) %MON trcstat_ptracer09_sd         =   2.3935231830112E-01
(PID.TID 0000.0001) %MON trcstat_ptracer09_del2       =   1.3879076158159E-03
(PID.TID 0000.0001) %MON trcstat_ptracer10_max        =   3.7356838583946E-01
(PID.TID 0000.0001) %MON trcstat_ptracer10_min        =  -1.7761927098036E-02
(PID.TID 0000.0001) %MON trcstat_ptracer10_mean       =   1.8506883099662E-03
(PID.TID 0000.0001) %MON trcstat_ptracer10_sd         =   1.4959519893820E-02
(PID.TID 0000.0001) %MON trcstat_ptracer10_del2       =   8.6744225988498E-05
(PID.TID 0000.0001) %MON trcstat_ptracer11_max        =   3.7356838583946E-04
(PID.TID 0000.0001) %MON trcstat_ptracer11_min        =  -1.7761927665561E-05
(PID.TID 0000.0001) %MON trcstat_ptracer11_mean       =   1.8506883080155E-06
(PID.TID 0000.0001) %MON trcstat_ptracer11_sd         =   1.4959519876217E-05
(PID.TID 0000.0001) %MON trcstat_ptracer11_del2       =   8.6744225749422E-08
(PID.TID 0000.0001) %MON trcstat_ptracer12_max        =   4.6216014862061E+01
(PID.TID 0000.0001) %MON trcstat_ptracer12_min        =  -6.0985386371613E-01
(PID.TID 0000.0001) %MON trcstat_ptracer12_mean       =   1.3614404215717E-01
(PID.TID 0000.0001) %MON trcstat_ptracer12_sd         =   2.5106543575268E-01
(PID.TID 0000.0001) %MON trcstat_ptracer12_del2       =   2.3291313533892E-03
(PID.TID 0000.0001) %MON trcstat_ptracer13_max        =   3.5817179679871E+00
(PID.TID 0000.0001) %MON trcstat_ptracer13_min        =  -7.7579833567142E-02
(PID.TID 0000.0001) %MON trcstat_ptracer13_mean       =   8.5936807319882E-03
(PID.TID 0000.0001) %MON trcstat_ptracer13_sd         =   2.3500339953136E-02
(PID.TID 0000.0001) %MON trcstat_ptracer13_del2       =   2.0879924192578E-04
(PID.TID 0000.0001) %MON trcstat_ptracer14_max        =   2.2385737299919E-01
(PID.TID 0000.0001) %MON trcstat_ptracer14_min        =  -4.8487395979464E-03
(PID.TID 0000.0001) %MON trcstat_ptracer14_mean       =   5.3710504574907E-04
(PID.TID 0000.0001) %MON trcstat_ptracer14_sd         =   1.4687712470710E-03
(PID.TID 0000.0001) %MON trcstat_ptracer14_del2       =   1.3049952620360E-05
(PID.TID 0000.0001) %MON trcstat_ptracer15_max        =   2.2385737975128E-04
(PID.TID 0000.0001) %MON trcstat_ptracer15_min        =  -4.8487395361008E-06
(PID.TID 0000.0001) %MON trcstat_ptracer15_mean       =   5.3710504565113E-07
(PID.TID 0000.0001) %MON trcstat_ptracer15_sd         =   1.4687712496627E-06
(PID.TID 0000.0001) %MON trcstat_ptracer15_del2       =   1.3049952666965E-08
(PID.TID 0000.0001) %MON trcstat_ptracer16_max        =   9.8399610519409E+00
(PID.TID 0000.0001) %MON trcstat_ptracer16_min        =  -2.8476420044899E-01
(PID.TID 0000.0001) %MON trcstat_ptracer16_mean       =   7.1259357705407E-02
(PID.TID 0000.0001) %MON trcstat_ptracer16_sd         =   1.6100116006311E-01
(PID.TID 0000.0001) %MON trcstat_ptracer16_del2       =   1.3587239335339E-03
(PID.TID 0000.0001) %MON trcstat_ptracer17_max        =   7.6658372879028E+00
(PID.TID 0000.0001) %MON trcstat_ptracer17_min        =  -3.3385466784239E-02
(PID.TID 0000.0001) %MON trcstat_ptracer17_mean       =   1.4226436156995E-02
(PID.TID 0000.0001) %MON trcstat_ptracer17_sd         =   3.2722117702439E-02
(PID.TID 0000.0001) %MON trcstat_ptracer17_del2       =   3.3140011160630E-04
(PID.TID 0000.0001) %MON trcstat_ptracer18_max        =   2.5636879882812E+03
(PID.TID 0000.0001) %MON trcstat_ptracer18_min        =   0.0000000000000E+00
(PID.TID 0000.0001) %MON trcstat_ptracer18_mean       =   2.1897936931260E+03
(PID.TID 0000.0001) %MON trcstat_ptracer18_sd         =   7.2183222994583E+02
(PID.TID 0000.0001) %MON trcstat_ptracer18_del2       =   4.6141154584752E+00
(PID.TID 0000.0001) %MON trcstat_ptracer19_max        =   4.0540899658203E+02
(PID.TID 0000.0001) %MON trcstat_ptracer19_min        =  -4.3340965270996E+01
(PID.TID 0000.0001) %MON trcstat_ptracer19_mean       =   1.5850115944755E+02
(PID.TID 0000.0001) %MON trcstat_ptracer19_sd         =   7.9798147090148E+01
(PID.TID 0000.0001) %MON trcstat_ptracer19_del2       =   3.9699563408629E-01
(PID.TID 0000.0001) %MON trcstat_ptracer20_max        =   9.7475042343140E+00
(PID.TID 0000.0001) %MON trcstat_ptracer20_min        =  -1.9598530530930E+00
(PID.TID 0000.0001) %MON trcstat_ptracer20_mean       =   7.5322771865506E-03
(PID.TID 0000.0001) %MON trcstat_ptracer20_sd         =   1.3671821731963E-01
(PID.TID 0000.0001) %MON trcstat_ptracer20_del2       =   1.8344010690712E-03
(PID.TID 0000.0001) %MON trcstat_ptracer21_max        =   8.1032714843750E+00
(PID.TID 0000.0001) %MON trcstat_ptracer21_min        =  -1.7514387369156E+00
(PID.TID 0000.0001) %MON trcstat_ptracer21_mean       =   4.1453540216861E-03
(PID.TID 0000.0001) %MON trcstat_ptracer21_sd         =   7.0524268041908E-02
(PID.TID 0000.0001) %MON trcstat_ptracer21_del2       =   1.1173887454911E-03
(PID.TID 0000.0001) %MON trcstat_ptracer22_max        =   7.6242585182190E+00
(PID.TID 0000.0001) %MON trcstat_ptracer22_min        =  -1.5907864570618E+00
(PID.TID 0000.0001) %MON trcstat_ptracer22_mean       =   3.1873188467809E-03
(PID.TID 0000.0001) %MON trcstat_ptracer22_sd         =   6.2031752594506E-02
(PID.TID 0000.0001) %MON trcstat_ptracer22_del2       =   8.4475387432299E-04
(PID.TID 0000.0001) %MON trcstat_ptracer23_max        =   3.3601451665163E-02
(PID.TID 0000.0001) %MON trcstat_ptracer23_min        =  -6.1657492071390E-02
(PID.TID 0000.0001) %MON trcstat_ptracer23_mean       =  -3.6286972653582E-06
(PID.TID 0000.0001) %MON trcstat_ptracer23_sd         =   3.9566327690512E-04
(PID.TID 0000.0001) %MON trcstat_ptracer23_del2       =   5.2958891497286E-06
(PID.TID 0000.0001) %MON trcstat_ptracer24_max        =   2.5686228275299E+00
(PID.TID 0000.0001) %MON trcstat_ptracer24_min        =  -4.5900285243988E-01
(PID.TID 0000.0001) %MON trcstat_ptracer24_mean       =   6.6367543845847E-03
(PID.TID 0000.0001) %MON trcstat_ptracer24_sd         =   7.7991109746261E-02
(PID.TID 0000.0001) %MON trcstat_ptracer24_del2       =   5.0562148358658E-04
(PID.TID 0000.0001) %MON trcstat_ptracer25_max        =   2.6803414821625E+00
(PID.TID 0000.0001) %MON trcstat_ptracer25_min        =  -4.7170892357826E-01
(PID.TID 0000.0001) %MON trcstat_ptracer25_mean       =   2.0730109208436E-03
(PID.TID 0000.0001) %MON trcstat_ptracer25_sd         =   3.7870422275976E-02
(PID.TID 0000.0001) %MON trcstat_ptracer25_del2       =   4.1049476056081E-04
(PID.TID 0000.0001) %MON trcstat_ptracer26_max        =   7.2505455017090E+00
(PID.TID 0000.0001) %MON trcstat_ptracer26_min        =  -1.8798761367798E+00
(PID.TID 0000.0001) %MON trcstat_ptracer26_mean       =   5.6059807073244E-03
(PID.TID 0000.0001) %MON trcstat_ptracer26_sd         =   1.1306109502273E-01
(PID.TID 0000.0001) %MON trcstat_ptracer26_del2       =   1.2774689555721E-03
(PID.TID 0000.0001) %MON trcstat_ptracer27_max        =   7.5185308456421E+00
(PID.TID 0000.0001) %MON trcstat_ptracer27_min        =  -5.6586146354675E-01
(PID.TID 0000.0001) %MON trcstat_ptracer27_mean       =   2.7697108853930E-03
(PID.TID 0000.0001) %MON trcstat_ptracer27_sd         =   4.7052505717066E-02
(PID.TID 0000.0001) %MON trcstat_ptracer27_del2       =   7.8190496940777E-04
(PID.TID 0000.0001) %MON trcstat_ptracer28_max        =   1.5145759582520E+01
(PID.TID 0000.0001) %MON trcstat_ptracer28_min        =  -6.4897119998932E-01
(PID.TID 0000.0001) %MON trcstat_ptracer28_mean       =   1.8683486057621E-03
(PID.TID 0000.0001) %MON trcstat_ptracer28_sd         =   4.6729075675906E-02
(PID.TID 0000.0001) %MON trcstat_ptracer28_del2       =   1.1659356860580E-03
(PID.TID 0000.0001) %MON trcstat_ptracer29_max        =   9.4170540571213E-01
(PID.TID 0000.0001) %MON trcstat_ptracer29_min        =  -1.6454638540745E-01
(PID.TID 0000.0001) %MON trcstat_ptracer29_mean       =   3.5369858627001E-04
(PID.TID 0000.0001) %MON trcstat_ptracer29_sd         =   7.4537308777811E-03
(PID.TID 0000.0001) %MON trcstat_ptracer29_del2       =   1.1997926437587E-04
(PID.TID 0000.0001) %MON trcstat_ptracer30_max        =   2.4455089587718E-03
(PID.TID 0000.0001) %MON trcstat_ptracer30_min        =  -3.6795479245484E-03
(PID.TID 0000.0001) %MON trcstat_ptracer30_mean       =  -2.1236574727927E-07
(PID.TID 0000.0001) %MON trcstat_ptracer30_sd         =   2.5292366185509E-05
(PID.TID 0000.0001) %MON trcstat_ptracer30_del2       =   3.6007290115736E-07
(PID.TID 0000.0001) %MON trcstat_ptracer31_max        =   2.8994876098633E+02
(PID.TID 0000.0001) %MON trcstat_ptracer31_min        =  -1.3391754031181E-01
(PID.TID 0000.0001) %MON trcstat_ptracer31_mean       =   1.0240139050393E-01
(PID.TID 0000.0001) %MON trcstat_ptracer31_sd         =   3.5262496040819E+00
(PID.TID 0000.0001) %MON trcstat_ptracer31_del2       =   2.1817095727989E-02
(PID.TID 0000.0001) // =======================================================
(PID.TID 0000.0001) // End MONITOR ptracer field statistics
(PID.TID 0000.0001) // =======================================================
(PID.TID 0000.0001) // =======================================================
(PID.TID 0000.0001) // Begin MONITOR EXF statistics
(PID.TID 0000.0001) // =======================================================
(PID.TID 0000.0001) %MON exf_tsnumber                 =                     0
(PID.TID 0000.0001) %MON exf_time_sec                 =   0.0000000000000E+00
(PID.TID 0000.0001) %MON exf_ustress_max              =   1.3197150319256E-01
(PID.TID 0000.0001) %MON exf_ustress_min              =  -1.1241981062184E-01
(PID.TID 0000.0001) %MON exf_ustress_mean             =  -4.4180119380266E-03
(PID.TID 0000.0001) %MON exf_ustress_sd               =   4.0089270205977E-02
(PID.TID 0000.0001) %MON exf_ustress_del2             =   1.4491822243411E-04
(PID.TID 0000.0001) %MON exf_vstress_max              =   9.9475057744052E-02
(PID.TID 0000.0001) %MON exf_vstress_min              =  -1.0051745098143E-01
(PID.TID 0000.0001) %MON exf_vstress_mean             =  -3.5066816367686E-03
(PID.TID 0000.0001) %MON exf_vstress_sd               =   1.8016414682053E-02
(PID.TID 0000.0001) %MON exf_vstress_del2             =   9.7296041162761E-05
(PID.TID 0000.0001) %MON exf_hflux_max                =   4.1332097421966E+02
(PID.TID 0000.0001) %MON exf_hflux_min                =  -3.3217430683864E+02
(PID.TID 0000.0001) %MON exf_hflux_mean               =  -8.1859540885360E+01
(PID.TID 0000.0001) %MON exf_hflux_sd                 =   1.0068707423552E+02
(PID.TID 0000.0001) %MON exf_hflux_del2               =   5.7665006832476E-01
(PID.TID 0000.0001) %MON exf_sflux_max                =   8.5103649949442E-08
(PID.TID 0000.0001) %MON exf_sflux_min                =  -6.3499828181685E-07
(PID.TID 0000.0001) %MON exf_sflux_mean               =  -1.5667042388710E-08
(PID.TID 0000.0001) %MON exf_sflux_sd                 =   3.7495716069479E-08
(PID.TID 0000.0001) %MON exf_sflux_del2               =   3.1063312908932E-10
(PID.TID 0000.0001) %MON exf_uwind_max                =   9.5224857206284E+00
(PID.TID 0000.0001) %MON exf_uwind_min                =  -8.7611307694778E+00
(PID.TID 0000.0001) %MON exf_uwind_mean               =  -4.9431205154469E-01
(PID.TID 0000.0001) %MON exf_uwind_sd                 =   4.4179319085268E+00
(PID.TID 0000.0001) %MON exf_uwind_del2               =   1.4284525189318E-02
(PID.TID 0000.0001) %MON exf_vwind_max                =   8.7164818880075E+00
(PID.TID 0000.0001) %MON exf_vwind_min                =  -6.9944463716967E+00
(PID.TID 0000.0001) %MON exf_vwind_mean               =  -3.7872453115569E-01
(PID.TID 0000.0001) %MON exf_vwind_sd                 =   2.2080112107057E+00
(PID.TID 0000.0001) %MON exf_vwind_del2               =   1.1430835584746E-02
(PID.TID 0000.0001) %MON exf_wspeed_max               =   9.5380653617048E+00
(PID.TID 0000.0001) %MON exf_wspeed_min               =   4.6660499226386E-02
(PID.TID 0000.0001) %MON exf_wspeed_mean              =   4.4777651512226E+00
(PID.TID 0000.0001) %MON exf_wspeed_sd                =   2.1750475351768E+00
(PID.TID 0000.0001) %MON exf_wspeed_del2              =   2.0412858730013E-02
(PID.TID 0000.0001) %MON exf_atemp_max                =   3.0188411019333E+02
(PID.TID 0000.0001) %MON exf_atemp_min                =   2.4477540550809E+02
(PID.TID 0000.0001) %MON exf_atemp_mean               =   2.9041286683468E+02
(PID.TID 0000.0001) %MON exf_atemp_sd                 =   9.7907953297784E+00
(PID.TID 0000.0001) %MON exf_atemp_del2               =   3.1161956587074E-02
(PID.TID 0000.0001) %MON exf_aqh_max                  =   1.9838785819047E-02
(PID.TID 0000.0001) %MON exf_aqh_min                  =   3.5635560571023E-04
(PID.TID 0000.0001) %MON exf_aqh_mean                 =   1.1235130713023E-02
(PID.TID 0000.0001) %MON exf_aqh_sd                   =   5.1804447890857E-03
(PID.TID 0000.0001) %MON exf_aqh_del2                 =   1.8225873240178E-05
(PID.TID 0000.0001) %MON exf_lwflux_max               =   1.5496547424105E+02
(PID.TID 0000.0001) %MON exf_lwflux_min               =   4.3012168101765E+00
(PID.TID 0000.0001) %MON exf_lwflux_mean              =   4.1308763542328E+01
(PID.TID 0000.0001) %MON exf_lwflux_sd                =   1.3587283248759E+01
(PID.TID 0000.0001) %MON exf_lwflux_del2              =   1.1680943245606E-01
(PID.TID 0000.0001) %MON exf_evap_max                 =   8.5128523201826E-08
(PID.TID 0000.0001) %MON exf_evap_min                 =  -1.2832224145005E-08
(PID.TID 0000.0001) %MON exf_evap_mean                =   2.6031676896682E-08
(PID.TID 0000.0001) %MON exf_evap_sd                  =   1.7974662914332E-08
(PID.TID 0000.0001) %MON exf_evap_del2                =   1.3134825832092E-10
(PID.TID 0000.0001) %MON exf_precip_max               =   1.4863974505744E-07
(PID.TID 0000.0001) %MON exf_precip_min               =  -8.5454258814521E-09
(PID.TID 0000.0001) %MON exf_precip_mean              =   3.9997275821751E-08
(PID.TID 0000.0001) %MON exf_precip_sd                =   2.9094932092526E-08
(PID.TID 0000.0001) %MON exf_precip_del2              =   2.5066074203415E-10
(PID.TID 0000.0001) %MON exf_swflux_max               =   3.3121876763925E+01
(PID.TID 0000.0001) %MON exf_swflux_min               =  -3.5303847682555E+02
(PID.TID 0000.0001) %MON exf_swflux_mean              =  -1.9692612279934E+02
(PID.TID 0000.0001) %MON exf_swflux_sd                =   7.3608010845451E+01
(PID.TID 0000.0001) %MON exf_swflux_del2              =   4.2115468790081E-01
(PID.TID 0000.0001) %MON exf_swdown_max               =   3.8081123372912E+02
(PID.TID 0000.0001) %MON exf_swdown_min               =  -4.7316966805607E+01
(PID.TID 0000.0001) %MON exf_swdown_mean              =   2.1343149596385E+02
(PID.TID 0000.0001) %MON exf_swdown_sd                =   7.8896145517863E+01
(PID.TID 0000.0001) %MON exf_swdown_del2              =   4.5661415880273E-01
(PID.TID 0000.0001) %MON exf_lwdown_max               =   4.4360816286504E+02
(PID.TID 0000.0001) %MON exf_lwdown_min               =   1.5699785740674E+02
(PID.TID 0000.0001) %MON exf_lwdown_mean              =   3.6918898915757E+02
(PID.TID 0000.0001) %MON exf_lwdown_sd                =   5.1751594993112E+01
(PID.TID 0000.0001) %MON exf_lwdown_del2              =   6.4193367365630E-01
(PID.TID 0000.0001) %MON exf_runoff_max               =   5.5080651490888E-07
(PID.TID 0000.0001) %MON exf_runoff_min               =   0.0000000000000E+00
(PID.TID 0000.0001) %MON exf_runoff_mean              =   1.7014434636413E-09
(PID.TID 0000.0001) %MON exf_runoff_sd                =   1.1339133423345E-08
(PID.TID 0000.0001) %MON exf_runoff_del2              =   1.2551612425836E-10
(PID.TID 0000.0001) // =======================================================
(PID.TID 0000.0001) // End MONITOR EXF statistics
(PID.TID 0000.0001) // =======================================================
 EXTERNAL_FIELDS_LOAD, it=         0 : Reading new data, i0,i1=   12    1 (prev=   12    0 )
(PID.TID 0000.0001) // =======================================================
(PID.TID 0000.0001) // Begin MONITOR DARWIN statistics
(PID.TID 0000.0001) // =======================================================
(PID.TID 0000.0001) %MON darwin_tsnumber              =                     0
(PID.TID 0000.0001) %MON darwin_time_sec              =   0.0000000000000E+00
(PID.TID 0000.0001) %MON darwin_surfPAR_max           =   0.0000000000000E+00
(PID.TID 0000.0001) %MON darwin_surfPAR_min           =   0.0000000000000E+00
(PID.TID 0000.0001) %MON darwin_surfPAR_mean          =   0.0000000000000E+00
(PID.TID 0000.0001) %MON darwin_surfPAR_sd            =   0.0000000000000E+00
(PID.TID 0000.0001) %MON darwin_surfPAR_del2          =   0.0000000000000E+00
(PID.TID 0000.0001) %MON darwin_inputFe_max           =   2.1167052485782E-09
(PID.TID 0000.0001) %MON darwin_inputFe_min           =   0.0000000000000E+00
(PID.TID 0000.0001) %MON darwin_inputFe_mean          =   2.0737690239012E-10
(PID.TID 0000.0001) %MON darwin_inputFe_sd            =   2.3900490993779E-10
(PID.TID 0000.0001) %MON darwin_inputFe_del2          =   9.6952579057262E-13
(PID.TID 0000.0001) %MON darwin_iceFrac_max           =   0.0000000000000E+00
(PID.TID 0000.0001) %MON darwin_iceFrac_min           =   0.0000000000000E+00
(PID.TID 0000.0001) %MON darwin_iceFrac_mean          =   0.0000000000000E+00
(PID.TID 0000.0001) %MON darwin_iceFrac_sd            =   0.0000000000000E+00
(PID.TID 0000.0001) %MON darwin_iceFrac_del2          =   0.0000000000000E+00
(PID.TID 0000.0001) %MON darwin_windSpeed_max         =   9.5380653617048E+00
(PID.TID 0000.0001) %MON darwin_windSpeed_min         =   4.6660499226386E-02
(PID.TID 0000.0001) %MON darwin_windSpeed_mean        =   4.4777651512226E+00
(PID.TID 0000.0001) %MON darwin_windSpeed_sd          =   2.1750475351768E+00
(PID.TID 0000.0001) %MON darwin_windSpeed_del2        =   2.0412858730013E-02
(PID.TID 0000.0001) %MON darwin_atmospCO2_max         =   3.7073999010317E-04
(PID.TID 0000.0001) %MON darwin_atmospCO2_min         =   3.6819630804530E-04
(PID.TID 0000.0001) %MON darwin_atmospCO2_mean        =   3.6882166552950E-04
(PID.TID 0000.0001) %MON darwin_atmospCO2_sd          =   5.2225728733332E-07
(PID.TID 0000.0001) %MON darwin_atmospCO2_del2        =   9.8124698248378E-11
(PID.TID 0000.0001) // =======================================================
(PID.TID 0000.0001) // End MONITOR DARWIN statistics
(PID.TID 0000.0001) // =======================================================
(PID.TID 0000.0001) SOLVE_FOR_PRESSURE: putPmEinXvector =    F
 cg2d: Sum(rhs),rhsMax =  -2.81444794326633E-01  9.41128545288939E+00
(PID.TID 0000.0001)      cg2d_init_res =   1.85508259401769E+01
(PID.TID 0000.0001)      cg2d_iters(min,last) =      -1      16
(PID.TID 0000.0001)      cg2d_last_res =   9.80649026360523E-06
(PID.TID 0000.0001) // =======================================================
(PID.TID 0000.0001) // Begin MONITOR dynamic field statistics
(PID.TID 0000.0001) // =======================================================
(PID.TID 0000.0001) %MON time_tsnumber                =                     1
(PID.TID 0000.0001) %MON time_secondsf                =   1.2000000000000E+03
(PID.TID 0000.0001) %MON dynstat_eta_max              =   9.5530744796651E-01
(PID.TID 0000.0001) %MON dynstat_eta_min              =  -1.8645281362807E+00
(PID.TID 0000.0001) %MON dynstat_eta_mean             =   1.7434125135616E-05
(PID.TID 0000.0001) %MON dynstat_eta_sd               =   5.6302089450554E-01
(PID.TID 0000.0001) %MON dynstat_eta_del2             =   1.4648504742914E-03
(PID.TID 0000.0001) %MON dynstat_uvel_max             =   1.8979065977671E-01
(PID.TID 0000.0001) %MON dynstat_uvel_min             =  -2.3666395919434E-01
(PID.TID 0000.0001) %MON dynstat_uvel_mean            =   1.8526437695705E-03
(PID.TID 0000.0001) %MON dynstat_uvel_sd              =   1.3061807155591E-02
(PID.TID 0000.0001) %MON dynstat_uvel_del2            =   5.0734003290615E-05
(PID.TID 0000.0001) %MON dynstat_vvel_max             =   1.4529512060232E-01
(PID.TID 0000.0001) %MON dynstat_vvel_min             =  -2.1616176875248E-01
(PID.TID 0000.0001) %MON dynstat_vvel_mean            =  -4.6060315397903E-04
(PID.TID 0000.0001) %MON dynstat_vvel_sd              =   7.4980178102971E-03
(PID.TID 0000.0001) %MON dynstat_vvel_del2            =   3.9864104741231E-05
(PID.TID 0000.0001) %MON dynstat_wvel_max             =   1.1899748024884E-04
(PID.TID 0000.0001) %MON dynstat_wvel_min             =  -4.0432725045894E-04
(PID.TID 0000.0001) %MON dynstat_wvel_mean            =  -3.0012945621433E-09
(PID.TID 0000.0001) %MON dynstat_wvel_sd              =   4.3520790926588E-06
(PID.TID 0000.0001) %MON dynstat_wvel_del2            =   3.8089309134164E-08
(PID.TID 0000.0001) %MON dynstat_theta_max            =   3.0246039105951E+01
(PID.TID 0000.0001) %MON dynstat_theta_min            =  -3.4674474232386E+00
(PID.TID 0000.0001) %MON dynstat_theta_mean           =   3.8023147983440E+00
(PID.TID 0000.0001) %MON dynstat_theta_sd             =   4.5124524004786E+00
(PID.TID 0000.0001) %MON dynstat_theta_del2           =   2.5987558561655E-03
(PID.TID 0000.0001) %MON dynstat_salt_max             =   3.7556832093786E+01
(PID.TID 0000.0001) %MON dynstat_salt_min             =   3.1484597185339E+01
(PID.TID 0000.0001) %MON dynstat_salt_mean            =   3.4614649616894E+01
(PID.TID 0000.0001) %MON dynstat_salt_sd              =   3.1408103380309E-01
(PID.TID 0000.0001) %MON dynstat_salt_del2            =   4.0544471943871E-04
(PID.TID 0000.0001) %MON dynstat_sst_max              =   3.0246039105951E+01
(PID.TID 0000.0001) %MON dynstat_sst_min              =  -1.9442039940369E+00
(PID.TID 0000.0001) %MON dynstat_sst_mean             =   1.8345711861909E+01
(PID.TID 0000.0001) %MON dynstat_sst_sd               =   9.2016659916973E+00
(PID.TID 0000.0001) %MON dynstat_sst_del2             =   1.4247324758388E-02
(PID.TID 0000.0001) %MON dynstat_sss_max              =   3.7556832093786E+01
(PID.TID 0000.0001) %MON dynstat_sss_min              =   3.1484597185339E+01
(PID.TID 0000.0001) %MON dynstat_sss_mean             =   3.4855844342470E+01
(PID.TID 0000.0001) %MON dynstat_sss_sd               =   9.5410000027101E-01
(PID.TID 0000.0001) %MON dynstat_sss_del2             =   3.0395566511046E-03
(PID.TID 0000.0001) %MON forcing_qnet_max             =   3.4884007120186E+02
(PID.TID 0000.0001) %MON forcing_qnet_min             =  -3.3217430683864E+02
(PID.TID 0000.0001) %MON forcing_qnet_mean            =  -8.2625526972935E+01
(PID.TID 0000.0001) %MON forcing_qnet_sd              =   9.8270986603046E+01
(PID.TID 0000.0001) %MON forcing_qnet_del2            =   5.8338869418871E-01
(PID.TID 0000.0001) %MON forcing_qsw_max              =   3.3121876763925E+01
(PID.TID 0000.0001) %MON forcing_qsw_min              =  -3.5303847682555E+02
(PID.TID 0000.0001) %MON forcing_qsw_mean             =  -1.9661042998707E+02
(PID.TID 0000.0001) %MON forcing_qsw_sd               =   7.3861079692988E+01
(PID.TID 0000.0001) %MON forcing_qsw_del2             =   3.3364872512363E-01
(PID.TID 0000.0001) %MON forcing_empmr_max            =   8.3343631859836E-04
(PID.TID 0000.0001) %MON forcing_empmr_min            =  -6.3499828181685E-04
(PID.TID 0000.0001) %MON forcing_empmr_mean           =  -1.4949692354382E-05
(PID.TID 0000.0001) %MON forcing_empmr_sd             =   4.3710070675156E-05
(PID.TID 0000.0001) %MON forcing_empmr_del2           =   8.2166199258518E-07
(PID.TID 0000.0001) %MON forcing_fu_max               =   1.3089536730952E-01
(PID.TID 0000.0001) %MON forcing_fu_min               =  -1.1231770189011E-01
(PID.TID 0000.0001) %MON forcing_fu_mean              =  -4.3374899703878E-03
(PID.TID 0000.0001) %MON forcing_fu_sd                =   4.0503930900840E-02
(PID.TID 0000.0001) %MON forcing_fu_del2              =   1.3951969048669E-04
(PID.TID 0000.0001) %MON forcing_fv_max               =   9.4384621287737E-02
(PID.TID 0000.0001) %MON forcing_fv_min               =  -8.4481130405443E-02
(PID.TID 0000.0001) %MON forcing_fv_mean              =  -3.3622945739666E-03
(PID.TID 0000.0001) %MON forcing_fv_sd                =   1.7536966727761E-02
(PID.TID 0000.0001) %MON forcing_fv_del2              =   8.3946088636480E-05
(PID.TID 0000.0001) %MON trAdv_CFL_u_max              =   1.6082041866104E-03
(PID.TID 0000.0001) %MON trAdv_CFL_v_max              =   8.2902891636937E-04
(PID.TID 0000.0001) %MON trAdv_CFL_w_max              =   1.6736652432363E-03
(PID.TID 0000.0001) %MON advcfl_uvel_max              =   1.6080094556152E-03
(PID.TID 0000.0001) %MON advcfl_vvel_max              =   8.2956572544469E-04
(PID.TID 0000.0001) %MON advcfl_wvel_max              =   1.5402942874626E-03
(PID.TID 0000.0001) %MON advcfl_W_hf_max              =   1.6736652432363E-03
(PID.TID 0000.0001) %MON pe_b_mean                    =   3.9601425875844E-04
(PID.TID 0000.0001) %MON ke_max                       =   3.1149900573887E-02
(PID.TID 0000.0001) %MON ke_mean                      =   1.0670124648700E-04
(PID.TID 0000.0001) %MON ke_vol                       =   1.2571476858570E+18
(PID.TID 0000.0001) %MON vort_r_min                   =  -9.0626558028626E-07
(PID.TID 0000.0001) %MON vort_r_max                   =   9.9011191748566E-07
(PID.TID 0000.0001) %MON vort_a_mean                  =  -2.4002453570026E-05
(PID.TID 0000.0001) %MON vort_a_sd                    =   7.3138175986405E-05
(PID.TID 0000.0001) %MON vort_p_mean                  =  -2.8585748876476E-05
(PID.TID 0000.0001) %MON vort_p_sd                    =   1.1454447706959E-04
(PID.TID 0000.0001) %MON surfExpan_theta_mean         =  -2.0337840170064E-06
(PID.TID 0000.0001) %MON surfExpan_salt_mean          =  -5.7142882249126E-08
(PID.TID 0000.0001) // =======================================================
(PID.TID 0000.0001) // End MONITOR dynamic field statistics
(PID.TID 0000.0001) // =======================================================
(PID.TID 0000.0001) // =======================================================
(PID.TID 0000.0001) // Begin MONITOR SEAICE statistics
(PID.TID 0000.0001) // =======================================================
(PID.TID 0000.0001) %MON seaice_tsnumber              =                     1
(PID.TID 0000.0001) %MON seaice_time_sec              =   1.2000000000000E+03
(PID.TID 0000.0001) %MON seaice_uice_max              =   3.1630174177461E-01
(PID.TID 0000.0001) %MON seaice_uice_min              =  -3.9552483612719E-01
(PID.TID 0000.0001) %MON seaice_uice_mean             =  -2.6936174064025E-03
(PID.TID 0000.0001) %MON seaice_uice_sd               =   1.0140186967797E-01
(PID.TID 0000.0001) %MON seaice_uice_del2             =   5.7348421320218E-04
(PID.TID 0000.0001) %MON seaice_vice_max              =   1.2995527682224E-01
(PID.TID 0000.0001) %MON seaice_vice_min              =  -2.7831049768799E-01
(PID.TID 0000.0001) %MON seaice_vice_mean             =  -4.7379145250456E-03
(PID.TID 0000.0001) %MON seaice_vice_sd               =   3.8497937226514E-02
(PID.TID 0000.0001) %MON seaice_vice_del2             =   3.3679381053410E-04
(PID.TID 0000.0001) %MON seaice_area_max              =   9.5000000000000E-01
(PID.TID 0000.0001) %MON seaice_area_min              =   0.0000000000000E+00
(PID.TID 0000.0001) %MON seaice_area_mean             =   4.7040119038411E-03
(PID.TID 0000.0001) %MON seaice_area_sd               =   6.6658553243234E-02
(PID.TID 0000.0001) %MON seaice_area_del2             =   1.9445003818615E-03
(PID.TID 0000.0001) %MON seaice_heff_max              =   1.0002694464867E+00
(PID.TID 0000.0001) %MON seaice_heff_min              =   0.0000000000000E+00
(PID.TID 0000.0001) %MON seaice_heff_mean             =   4.9489611352484E-03
(PID.TID 0000.0001) %MON seaice_heff_sd               =   7.0158939893902E-02
(PID.TID 0000.0001) %MON seaice_heff_del2             =   2.0476297883199E-03
(PID.TID 0000.0001) %MON seaice_hsnow_max             =   2.0010468601969E-01
(PID.TID 0000.0001) %MON seaice_hsnow_min             =   0.0000000000000E+00
(PID.TID 0000.0001) %MON seaice_hsnow_mean            =   9.8975493431585E-04
(PID.TID 0000.0001) %MON seaice_hsnow_sd              =   1.4035114162212E-02
(PID.TID 0000.0001) %MON seaice_hsnow_del2            =   4.0974943089368E-04
(PID.TID 0000.0001) // =======================================================
(PID.TID 0000.0001) // End MONITOR SEAICE statistics
(PID.TID 0000.0001) // =======================================================
(PID.TID 0000.0001) // =======================================================
(PID.TID 0000.0001) // Begin MONITOR ptracer field statistics
(PID.TID 0000.0001) // =======================================================
(PID.TID 0000.0001) %MON trcstat_ptracer01_max        =   2.4830783653987E+03
(PID.TID 0000.0001) %MON trcstat_ptracer01_min        =  -2.7304886997722E-01
(PID.TID 0000.0001) %MON trcstat_ptracer01_mean       =   2.0930835277405E+03
(PID.TID 0000.0001) %MON trcstat_ptracer01_sd         =   6.9251561197516E+02
(PID.TID 0000.0001) %MON trcstat_ptracer01_del2       =   4.4007298007042E+00
(PID.TID 0000.0001) %MON trcstat_ptracer02_max        =   4.9807582585447E+01
(PID.TID 0000.0001) %MON trcstat_ptracer02_min        =  -4.7116893863051E+00
(PID.TID 0000.0001) %MON trcstat_ptracer02_mean       =   2.8998135994244E+01
(PID.TID 0000.0001) %MON trcstat_ptracer02_sd         =   1.2491087686745E+01
(PID.TID 0000.0001) %MON trcstat_ptracer02_del2       =   6.2426671523106E-02
(PID.TID 0000.0001) %MON trcstat_ptracer03_max        =   9.6638832050734E-01
(PID.TID 0000.0001) %MON trcstat_ptracer03_min        =  -6.2204511031849E-02
(PID.TID 0000.0001) %MON trcstat_ptracer03_mean       =   3.2364051453424E-03
(PID.TID 0000.0001) %MON trcstat_ptracer03_sd         =   2.2980180097314E-02
(PID.TID 0000.0001) %MON trcstat_ptracer03_del2       =   1.8766277931873E-04
(PID.TID 0000.0001) %MON trcstat_ptracer04_max        =   1.9493788153693E-01
(PID.TID 0000.0001) %MON trcstat_ptracer04_min        =  -4.2317438258095E-03
(PID.TID 0000.0001) %MON trcstat_ptracer04_mean       =   3.3763498048298E-04
(PID.TID 0000.0001) %MON trcstat_ptracer04_sd         =   2.7966028633608E-03
(PID.TID 0000.0001) %MON trcstat_ptracer04_del2       =   2.5091769195505E-05
(PID.TID 0000.0001) %MON trcstat_ptracer05_max        =   3.5612040783833E+00
(PID.TID 0000.0001) %MON trcstat_ptracer05_min        =  -3.9354367671084E-01
(PID.TID 0000.0001) %MON trcstat_ptracer05_mean       =   2.0337891813856E+00
(PID.TID 0000.0001) %MON trcstat_ptracer05_sd         =   8.8530952756782E-01
(PID.TID 0000.0001) %MON trcstat_ptracer05_del2       =   4.3556857976710E-03
(PID.TID 0000.0001) %MON trcstat_ptracer06_max        =   1.0598501742643E-03
(PID.TID 0000.0001) %MON trcstat_ptracer06_min        =  -1.0720656525025E-04
(PID.TID 0000.0001) %MON trcstat_ptracer06_mean       =   4.8885077864077E-04
(PID.TID 0000.0001) %MON trcstat_ptracer06_sd         =   1.9302892422271E-04
(PID.TID 0000.0001) %MON trcstat_ptracer06_del2       =   1.2613938036784E-06
(PID.TID 0000.0001) %MON trcstat_ptracer07_max        =   2.2760490764074E+02
(PID.TID 0000.0001) %MON trcstat_ptracer07_min        =  -8.7288921517656E+00
(PID.TID 0000.0001) %MON trcstat_ptracer07_mean       =   8.4966373878566E+01
(PID.TID 0000.0001) %MON trcstat_ptracer07_sd         =   5.5748105654165E+01
(PID.TID 0000.0001) %MON trcstat_ptracer07_del2       =   2.2100376880671E-01
(PID.TID 0000.0001) %MON trcstat_ptracer08_max        =   7.3318306937073E+01
(PID.TID 0000.0001) %MON trcstat_ptracer08_min        =  -3.8501086471080E+00
(PID.TID 0000.0001) %MON trcstat_ptracer08_mean       =   4.5141944633953E-01
(PID.TID 0000.0001) %MON trcstat_ptracer08_sd         =   3.1072637085974E+00
(PID.TID 0000.0001) %MON trcstat_ptracer08_del2       =   1.5853528276200E-02
(PID.TID 0000.0001) %MON trcstat_ptracer09_max        =   5.9768213817035E+00
(PID.TID 0000.0001) %MON trcstat_ptracer09_min        =  -2.8389291133474E-01
(PID.TID 0000.0001) %MON trcstat_ptracer09_mean       =   2.9610767921689E-02
(PID.TID 0000.0001) %MON trcstat_ptracer09_sd         =   2.3879026203145E-01
(PID.TID 0000.0001) %MON trcstat_ptracer09_del2       =   1.4084662313575E-03
(PID.TID 0000.0001) %MON trcstat_ptracer10_max        =   3.7355133635647E-01
(PID.TID 0000.0001) %MON trcstat_ptracer10_min        =  -1.7743306958421E-02
(PID.TID 0000.0001) %MON trcstat_ptracer10_mean       =   1.8506729951055E-03
(PID.TID 0000.0001) %MON trcstat_ptracer10_sd         =   1.4924391376966E-02
(PID.TID 0000.0001) %MON trcstat_ptracer10_del2       =   8.8029139459842E-05
(PID.TID 0000.0001) %MON trcstat_ptracer11_max        =   3.7355133635670E-04
(PID.TID 0000.0001) %MON trcstat_ptracer11_min        =  -1.7743307525718E-05
(PID.TID 0000.0001) %MON trcstat_ptracer11_mean       =   1.8506729931551E-06
(PID.TID 0000.0001) %MON trcstat_ptracer11_sd         =   1.4924391359521E-05
(PID.TID 0000.0001) %MON trcstat_ptracer11_del2       =   8.8029139259257E-08
(PID.TID 0000.0001) %MON trcstat_ptracer12_max        =   4.6117830576705E+01
(PID.TID 0000.0001) %MON trcstat_ptracer12_min        =  -6.0963043498832E-01
(PID.TID 0000.0001) %MON trcstat_ptracer12_mean       =   1.3613862195957E-01
(PID.TID 0000.0001) %MON trcstat_ptracer12_sd         =   2.5087075773978E-01
(PID.TID 0000.0001) %MON trcstat_ptracer12_del2       =   2.3267610321569E-03
(PID.TID 0000.0001) %MON trcstat_ptracer13_max        =   3.5739881925054E+00
(PID.TID 0000.0001) %MON trcstat_ptracer13_min        =  -7.7551578270830E-02
(PID.TID 0000.0001) %MON trcstat_ptracer13_mean       =   8.5931836668323E-03
(PID.TID 0000.0001) %MON trcstat_ptracer13_sd         =   2.3482260091586E-02
(PID.TID 0000.0001) %MON trcstat_ptracer13_del2       =   2.0866808804086E-04
(PID.TID 0000.0001) %MON trcstat_ptracer14_max        =   2.2337426203159E-01
(PID.TID 0000.0001) %MON trcstat_ptracer14_min        =  -4.8469736419269E-03
(PID.TID 0000.0001) %MON trcstat_ptracer14_mean       =   5.3707397917682E-04
(PID.TID 0000.0001) %MON trcstat_ptracer14_sd         =   1.4676412557241E-03
(PID.TID 0000.0001) %MON trcstat_ptracer14_del2       =   1.3041755502552E-05
(PID.TID 0000.0001) %MON trcstat_ptracer15_max        =   2.2337426876802E-04
(PID.TID 0000.0001) %MON trcstat_ptracer15_min        =  -4.8469735800463E-06
(PID.TID 0000.0001) %MON trcstat_ptracer15_mean       =   5.3707397907888E-07
(PID.TID 0000.0001) %MON trcstat_ptracer15_sd         =   1.4676412583157E-06
(PID.TID 0000.0001) %MON trcstat_ptracer15_del2       =   1.3041755549935E-08
(PID.TID 0000.0001) %MON trcstat_ptracer16_max        =   9.8190345678832E+00
(PID.TID 0000.0001) %MON trcstat_ptracer16_min        =  -2.8469423341644E-01
(PID.TID 0000.0001) %MON trcstat_ptracer16_mean       =   7.1256550851936E-02
(PID.TID 0000.0001) %MON trcstat_ptracer16_sd         =   1.6092601231863E-01
(PID.TID 0000.0001) %MON trcstat_ptracer16_del2       =   1.3577781998895E-03
(PID.TID 0000.0001) %MON trcstat_ptracer17_max        =   7.6422438470813E+00
(PID.TID 0000.0001) %MON trcstat_ptracer17_min        =  -3.3359029542674E-02
(PID.TID 0000.0001) %MON trcstat_ptracer17_mean       =   1.4225312851687E-02
(PID.TID 0000.0001) %MON trcstat_ptracer17_sd         =   3.2682771381195E-02
(PID.TID 0000.0001) %MON trcstat_ptracer17_del2       =   3.3070616761758E-04
(PID.TID 0000.0001) %MON trcstat_ptracer18_max        =   2.5635919780274E+03
(PID.TID 0000.0001) %MON trcstat_ptracer18_min        =  -2.8664380525464E-01
(PID.TID 0000.0001) %MON trcstat_ptracer18_mean       =   2.1897936761920E+03
(PID.TID 0000.0001) %MON trcstat_ptracer18_sd         =   7.2180628207145E+02
(PID.TID 0000.0001) %MON trcstat_ptracer18_del2       =   4.6133892185362E+00
(PID.TID 0000.0001) %MON trcstat_ptracer19_max        =   4.0536604306432E+02
(PID.TID 0000.0001) %MON trcstat_ptracer19_min        =  -4.3334094580683E+01
(PID.TID 0000.0001) %MON trcstat_ptracer19_mean       =   1.5850128512426E+02
(PID.TID 0000.0001) %MON trcstat_ptracer19_sd         =   7.9793760125915E+01
(PID.TID 0000.0001) %MON trcstat_ptracer19_del2       =   3.9697177361794E-01
(PID.TID 0000.0001) %MON trcstat_ptracer20_max        =   9.7441348439135E+00
(PID.TID 0000.0001) %MON trcstat_ptracer20_min        =  -1.9595155345344E+00
(PID.TID 0000.0001) %MON trcstat_ptracer20_mean       =   7.5505152160255E-03
(PID.TID 0000.0001) %MON trcstat_ptracer20_sd         =   1.3688290405872E-01
(PID.TID 0000.0001) %MON trcstat_ptracer20_del2       =   1.8364421550581E-03
(PID.TID 0000.0001) %MON trcstat_ptracer21_max        =   8.1024703984836E+00
(PID.TID 0000.0001) %MON trcstat_ptracer21_min        =  -1.7512764470924E+00
(PID.TID 0000.0001) %MON trcstat_ptracer21_mean       =   4.1564806055622E-03
(PID.TID 0000.0001) %MON trcstat_ptracer21_sd         =   7.0554684971963E-02
(PID.TID 0000.0001) %MON trcstat_ptracer21_del2       =   1.1173901340608E-03
(PID.TID 0000.0001) %MON trcstat_ptracer22_max        =   7.6422041004683E+00
(PID.TID 0000.0001) %MON trcstat_ptracer22_min        =  -1.5901702144388E+00
(PID.TID 0000.0001) %MON trcstat_ptracer22_mean       =   3.1939890646943E-03
(PID.TID 0000.0001) %MON trcstat_ptracer22_sd         =   6.1992641628762E-02
(PID.TID 0000.0001) %MON trcstat_ptracer22_del2       =   8.4582358208912E-04
(PID.TID 0000.0001) %MON trcstat_ptracer23_max        =   3.3544472431284E-02
(PID.TID 0000.0001) %MON trcstat_ptracer23_min        =  -6.1648349554839E-02
(PID.TID 0000.0001) %MON trcstat_ptracer23_mean       =  -3.6296080301894E-06
(PID.TID 0000.0001) %MON trcstat_ptracer23_sd         =   3.9555624319144E-04
(PID.TID 0000.0001) %MON trcstat_ptracer23_del2       =   5.2916761814564E-06
(PID.TID 0000.0001) %MON trcstat_ptracer24_max        =   2.5716892739132E+00
(PID.TID 0000.0001) %MON trcstat_ptracer24_min        =  -4.5891198051796E-01
(PID.TID 0000.0001) %MON trcstat_ptracer24_mean       =   6.6459804890708E-03
(PID.TID 0000.0001) %MON trcstat_ptracer24_sd         =   7.8002914065352E-02
(PID.TID 0000.0001) %MON trcstat_ptracer24_del2       =   5.0918483721058E-04
(PID.TID 0000.0001) %MON trcstat_ptracer25_max        =   2.6794723754461E+00
(PID.TID 0000.0001) %MON trcstat_ptracer25_min        =  -4.7158798318274E-01
(PID.TID 0000.0001) %MON trcstat_ptracer25_mean       =   2.0730044342515E-03
(PID.TID 0000.0001) %MON trcstat_ptracer25_sd         =   3.7829911415712E-02
(PID.TID 0000.0001) %MON trcstat_ptracer25_del2       =   4.1087321786538E-04
(PID.TID 0000.0001) %MON trcstat_ptracer26_max        =   7.2516930041709E+00
(PID.TID 0000.0001) %MON trcstat_ptracer26_min        =  -1.8795184463773E+00
(PID.TID 0000.0001) %MON trcstat_ptracer26_mean       =   5.6063433405532E-03
(PID.TID 0000.0001) %MON trcstat_ptracer26_sd         =   1.1294078227344E-01
(PID.TID 0000.0001) %MON trcstat_ptracer26_del2       =   1.2757669603470E-03
(PID.TID 0000.0001) %MON trcstat_ptracer27_max        =   7.5006016202868E+00
(PID.TID 0000.0001) %MON trcstat_ptracer27_min        =  -5.6575861815379E-01
(PID.TID 0000.0001) %MON trcstat_ptracer27_mean       =   2.7723841571929E-03
(PID.TID 0000.0001) %MON trcstat_ptracer27_sd         =   4.7053850436208E-02
(PID.TID 0000.0001) %MON trcstat_ptracer27_del2       =   7.8150782295335E-04
(PID.TID 0000.0001) %MON trcstat_ptracer28_max        =   1.5090186159537E+01
(PID.TID 0000.0001) %MON trcstat_ptracer28_min        =  -6.4881625560460E-01
(PID.TID 0000.0001) %MON trcstat_ptracer28_mean       =   1.8691380235169E-03
(PID.TID 0000.0001) %MON trcstat_ptracer28_sd         =   4.6616090908297E-02
(PID.TID 0000.0001) %MON trcstat_ptracer28_del2       =   1.1622881285286E-03
(PID.TID 0000.0001) %MON trcstat_ptracer29_max        =   9.4498865296689E-01
(PID.TID 0000.0001) %MON trcstat_ptracer29_min        =  -1.6450196969607E-01
(PID.TID 0000.0001) %MON trcstat_ptracer29_mean       =   3.5418280698450E-04
(PID.TID 0000.0001) %MON trcstat_ptracer29_sd         =   7.4374803145743E-03
(PID.TID 0000.0001) %MON trcstat_ptracer29_del2       =   1.1993805642911E-04
(PID.TID 0000.0001) %MON trcstat_ptracer30_max        =   2.4443328282777E-03
(PID.TID 0000.0001) %MON trcstat_ptracer30_min        =  -3.6790805976828E-03
(PID.TID 0000.0001) %MON trcstat_ptracer30_mean       =  -2.1239554884322E-07
(PID.TID 0000.0001) %MON trcstat_ptracer30_sd         =   2.5287115146308E-05
(PID.TID 0000.0001) %MON trcstat_ptracer30_del2       =   3.5990684765548E-07
(PID.TID 0000.0001) %MON trcstat_ptracer31_max        =   2.8929907581327E+02
(PID.TID 0000.0001) %MON trcstat_ptracer31_min        =  -1.3383270190537E-01
(PID.TID 0000.0001) %MON trcstat_ptracer31_mean       =   1.0218619811191E-01
(PID.TID 0000.0001) %MON trcstat_ptracer31_sd         =   3.5186654982152E+00
(PID.TID 0000.0001) %MON trcstat_ptracer31_del2       =   2.1763297805503E-02
(PID.TID 0000.0001) // =======================================================
(PID.TID 0000.0001) // End MONITOR ptracer field statistics
(PID.TID 0000.0001) // =======================================================
(PID.TID 0000.0001) // =======================================================
(PID.TID 0000.0001) // Begin MONITOR EXF statistics
(PID.TID 0000.0001) // =======================================================
(PID.TID 0000.0001) %MON exf_tsnumber                 =                     1
(PID.TID 0000.0001) %MON exf_time_sec                 =   1.2000000000000E+03
(PID.TID 0000.0001) %MON exf_ustress_max              =   1.3195790383168E-01
(PID.TID 0000.0001) %MON exf_ustress_min              =  -1.1242709108703E-01
(PID.TID 0000.0001) %MON exf_ustress_mean             =  -4.4184440322028E-03
(PID.TID 0000.0001) %MON exf_ustress_sd               =   4.0088536004330E-02
(PID.TID 0000.0001) %MON exf_ustress_del2             =   1.4490901777153E-04
(PID.TID 0000.0001) %MON exf_vstress_max              =   9.9477899353205E-02
(PID.TID 0000.0001) %MON exf_vstress_min              =  -1.0046745259933E-01
(PID.TID 0000.0001) %MON exf_vstress_mean             =  -3.5075052739295E-03
(PID.TID 0000.0001) %MON exf_vstress_sd               =   1.8015227118908E-02
(PID.TID 0000.0001) %MON exf_vstress_del2             =   9.7289222771794E-05
(PID.TID 0000.0001) %MON exf_hflux_max                =   4.1332057240558E+02
(PID.TID 0000.0001) %MON exf_hflux_min                =  -3.3216530782571E+02
(PID.TID 0000.0001) %MON exf_hflux_mean               =  -8.1855304550165E+01
(PID.TID 0000.0001) %MON exf_hflux_sd                 =   1.0068239823270E+02
(PID.TID 0000.0001) %MON exf_hflux_del2               =   5.7655190769451E-01
(PID.TID 0000.0001) %MON exf_sflux_max                =   8.5103465297786E-08
(PID.TID 0000.0001) %MON exf_sflux_min                =  -6.3514564310226E-07
(PID.TID 0000.0001) %MON exf_sflux_mean               =  -1.5666177186009E-08
(PID.TID 0000.0001) %MON exf_sflux_sd                 =   3.7495590308228E-08
(PID.TID 0000.0001) %MON exf_sflux_del2               =   3.1062983169408E-10
(PID.TID 0000.0001) %MON exf_uwind_max                =   9.5220274770339E+00
(PID.TID 0000.0001) %MON exf_uwind_min                =  -8.7609914003466E+00
(PID.TID 0000.0001) %MON exf_uwind_mean               =  -4.9434528743634E-01
(PID.TID 0000.0001) %MON exf_uwind_sd                 =   4.4178418639237E+00
(PID.TID 0000.0001) %MON exf_uwind_del2               =   1.2108274992728E-02
(PID.TID 0000.0001) %MON exf_vwind_max                =   8.7165744274621E+00
(PID.TID 0000.0001) %MON exf_vwind_min                =  -6.9953135903159E+00
(PID.TID 0000.0001) %MON exf_vwind_mean               =  -3.7880683314258E-01
(PID.TID 0000.0001) %MON exf_vwind_sd                 =   2.2079165123759E+00
(PID.TID 0000.0001) %MON exf_vwind_del2               =   9.5077383678147E-03
(PID.TID 0000.0001) %MON exf_wspeed_max               =   9.5376358442440E+00
(PID.TID 0000.0001) %MON exf_wspeed_min               =   4.7767687983628E-02
(PID.TID 0000.0001) %MON exf_wspeed_mean              =   4.4776472829161E+00
(PID.TID 0000.0001) %MON exf_wspeed_sd                =   2.1750330457489E+00
(PID.TID 0000.0001) %MON exf_wspeed_del2              =   2.0413661789158E-02
(PID.TID 0000.0001) %MON exf_atemp_max                =   3.0188419254587E+02
(PID.TID 0000.0001) %MON exf_atemp_min                =   2.4477262450884E+02
(PID.TID 0000.0001) %MON exf_atemp_mean               =   2.9041291589365E+02
(PID.TID 0000.0001) %MON exf_atemp_sd                 =   9.7907672015143E+00
(PID.TID 0000.0001) %MON exf_atemp_del2               =   3.1162338390437E-02
(PID.TID 0000.0001) %MON exf_aqh_max                  =   1.9838362571128E-02
(PID.TID 0000.0001) %MON exf_aqh_min                  =   3.5627964837673E-04
(PID.TID 0000.0001) %MON exf_aqh_mean                 =   1.1235096589150E-02
(PID.TID 0000.0001) %MON exf_aqh_sd                   =   5.1803565377553E-03
(PID.TID 0000.0001) %MON exf_aqh_del2                 =   1.8225974519205E-05
(PID.TID 0000.0001) %MON exf_lwflux_max               =   1.5496919037799E+02
(PID.TID 0000.0001) %MON exf_lwflux_min               =   4.3028340477613E+00
(PID.TID 0000.0001) %MON exf_lwflux_mean              =   4.1310035382118E+01
(PID.TID 0000.0001) %MON exf_lwflux_sd                =   1.3587632193485E+01
(PID.TID 0000.0001) %MON exf_lwflux_del2              =   1.1680140364354E-01
(PID.TID 0000.0001) %MON exf_evap_max                 =   8.5133585828903E-08
(PID.TID 0000.0001) %MON exf_evap_min                 =  -1.2831337151575E-08
(PID.TID 0000.0001) %MON exf_evap_mean                =   2.6032206593027E-08
(PID.TID 0000.0001) %MON exf_evap_sd                  =   1.7974290991554E-08
(PID.TID 0000.0001) %MON exf_evap_del2                =   1.3132732242678E-10
(PID.TID 0000.0001) %MON exf_precip_max               =   1.4863036844251E-07
(PID.TID 0000.0001) %MON exf_precip_min               =  -8.5446501726450E-09
(PID.TID 0000.0001) %MON exf_precip_mean              =   3.9997000517069E-08
(PID.TID 0000.0001) %MON exf_precip_sd                =   2.9093708527129E-08
(PID.TID 0000.0001) %MON exf_precip_del2              =   2.5065002224626E-10
(PID.TID 0000.0001) %MON exf_swflux_max               =   3.3124753756401E+01
(PID.TID 0000.0001) %MON exf_swflux_min               =  -3.5303651729354E+02
(PID.TID 0000.0001) %MON exf_swflux_mean              =  -1.9692538981976E+02
(PID.TID 0000.0001) %MON exf_swflux_sd                =   7.3606020392230E+01
(PID.TID 0000.0001) %MON exf_swflux_del2              =   4.2114458208576E-01
(PID.TID 0000.0001) %MON exf_swdown_max               =   3.8080912831952E+02
(PID.TID 0000.0001) %MON exf_swdown_min               =  -4.7321076794858E+01
(PID.TID 0000.0001) %MON exf_swdown_mean              =   2.1343067140604E+02
(PID.TID 0000.0001) %MON exf_swdown_sd                =   7.8893947468500E+01
(PID.TID 0000.0001) %MON exf_swdown_del2              =   4.5660316220339E-01
(PID.TID 0000.0001) %MON exf_lwdown_max               =   4.4360611589727E+02
(PID.TID 0000.0001) %MON exf_lwdown_min               =   1.5698406222672E+02
(PID.TID 0000.0001) %MON exf_lwdown_mean              =   3.6918899296732E+02
(PID.TID 0000.0001) %MON exf_lwdown_sd                =   5.1750455995689E+01
(PID.TID 0000.0001) %MON exf_lwdown_del2              =   6.4193670921676E-01
(PID.TID 0000.0001) %MON exf_runoff_max               =   5.5095104463307E-07
(PID.TID 0000.0001) %MON exf_runoff_min               =   0.0000000000000E+00
(PID.TID 0000.0001) %MON exf_runoff_mean              =   1.7013832619664E-09
(PID.TID 0000.0001) %MON exf_runoff_sd                =   1.1341384528204E-08
(PID.TID 0000.0001) %MON exf_runoff_del2              =   1.2554419561950E-10
(PID.TID 0000.0001) // =======================================================
(PID.TID 0000.0001) // End MONITOR EXF statistics
(PID.TID 0000.0001) // =======================================================
(PID.TID 0000.0001) // =======================================================
(PID.TID 0000.0001) // Begin MONITOR DARWIN statistics
(PID.TID 0000.0001) // =======================================================
(PID.TID 0000.0001) %MON darwin_tsnumber              =                     1
(PID.TID 0000.0001) %MON darwin_time_sec              =   1.2000000000000E+03
(PID.TID 0000.0001) %MON darwin_surfPAR_max           =   0.0000000000000E+00
(PID.TID 0000.0001) %MON darwin_surfPAR_min           =   0.0000000000000E+00
(PID.TID 0000.0001) %MON darwin_surfPAR_mean          =   0.0000000000000E+00
(PID.TID 0000.0001) %MON darwin_surfPAR_sd            =   0.0000000000000E+00
(PID.TID 0000.0001) %MON darwin_surfPAR_del2          =   0.0000000000000E+00
(PID.TID 0000.0001) %MON darwin_inputFe_max           =   2.1160049330555E-09
(PID.TID 0000.0001) %MON darwin_inputFe_min           =   0.0000000000000E+00
(PID.TID 0000.0001) %MON darwin_inputFe_mean          =   2.0738518379763E-10
(PID.TID 0000.0001) %MON darwin_inputFe_sd            =   2.3901373372989E-10
(PID.TID 0000.0001) %MON darwin_inputFe_del2          =   9.6954470386401E-13
(PID.TID 0000.0001) %MON darwin_iceFrac_max           =   9.5000000000000E-01
(PID.TID 0000.0001) %MON darwin_iceFrac_min           =   0.0000000000000E+00
(PID.TID 0000.0001) %MON darwin_iceFrac_mean          =   4.7040119038411E-03
(PID.TID 0000.0001) %MON darwin_iceFrac_sd            =   6.6658553243234E-02
(PID.TID 0000.0001) %MON darwin_iceFrac_del2          =   1.9445003818615E-03
(PID.TID 0000.0001) %MON darwin_windSpeed_max         =   9.5376358442440E+00
(PID.TID 0000.0001) %MON darwin_windSpeed_min         =   4.7767687983628E-02
(PID.TID 0000.0001) %MON darwin_windSpeed_mean        =   4.4776472829161E+00
(PID.TID 0000.0001) %MON darwin_windSpeed_sd          =   2.1750330457489E+00
(PID.TID 0000.0001) %MON darwin_windSpeed_del2        =   2.0413661789158E-02
(PID.TID 0000.0001) %MON darwin_atmospCO2_max         =   3.7074037072915E-04
(PID.TID 0000.0001) %MON darwin_atmospCO2_min         =   3.6819582776119E-04
(PID.TID 0000.0001) %MON darwin_atmospCO2_mean        =   3.6882182392081E-04
(PID.TID 0000.0001) %MON darwin_atmospCO2_sd          =   5.2261357364307E-07
(PID.TID 0000.0001) %MON darwin_atmospCO2_del2        =   9.8118873818447E-11
(PID.TID 0000.0001) // =======================================================
(PID.TID 0000.0001) // End MONITOR DARWIN statistics
(PID.TID 0000.0001) // =======================================================
 cg2d: Sum(rhs),rhsMax =  -5.63762625371751E-01  1.10832391369278E+01
(PID.TID 0000.0001)      cg2d_init_res =   5.92325451935506E+00
(PID.TID 0000.0001)      cg2d_iters(min,last) =      -1      15
(PID.TID 0000.0001)      cg2d_last_res =   1.33879797284094E-05
(PID.TID 0000.0001) // =======================================================
(PID.TID 0000.0001) // Begin MONITOR dynamic field statistics
(PID.TID 0000.0001) // =======================================================
(PID.TID 0000.0001) %MON time_tsnumber                =                     2
(PID.TID 0000.0001) %MON time_secondsf                =   2.4000000000000E+03
(PID.TID 0000.0001) %MON dynstat_eta_max              =   9.3938384106335E-01
(PID.TID 0000.0001) %MON dynstat_eta_min              =  -2.1924141189345E+00
(PID.TID 0000.0001) %MON dynstat_eta_mean             =   3.4922330613628E-05
(PID.TID 0000.0001) %MON dynstat_eta_sd               =   5.5994165981462E-01
(PID.TID 0000.0001) %MON dynstat_eta_del2             =   1.8339044510188E-03
(PID.TID 0000.0001) %MON dynstat_uvel_max             =   1.8962811461494E-01
(PID.TID 0000.0001) %MON dynstat_uvel_min             =  -2.3502417429619E-01
(PID.TID 0000.0001) %MON dynstat_uvel_mean            =   1.8392039156445E-03
(PID.TID 0000.0001) %MON dynstat_uvel_sd              =   1.3036035204167E-02
(PID.TID 0000.0001) %MON dynstat_uvel_del2            =   5.1984837411292E-05
(PID.TID 0000.0001) %MON dynstat_vvel_max             =   1.4121900324905E-01
(PID.TID 0000.0001) %MON dynstat_vvel_min             =  -2.1486541134068E-01
(PID.TID 0000.0001) %MON dynstat_vvel_mean            =  -7.2821557421576E-04
(PID.TID 0000.0001) %MON dynstat_vvel_sd              =   7.8627506127085E-03
(PID.TID 0000.0001) %MON dynstat_vvel_del2            =   4.2217996527389E-05
(PID.TID 0000.0001) %MON dynstat_wvel_max             =   1.3612823059338E-04
(PID.TID 0000.0001) %MON dynstat_wvel_min             =  -4.0999808541057E-04
(PID.TID 0000.0001) %MON dynstat_wvel_mean            =   5.2285005583040E-09
(PID.TID 0000.0001) %MON dynstat_wvel_sd              =   6.5564336282863E-06
(PID.TID 0000.0001) %MON dynstat_wvel_del2            =   5.5562688956639E-08
(PID.TID 0000.0001) %MON dynstat_theta_max            =   3.0245572487658E+01
(PID.TID 0000.0001) %MON dynstat_theta_min            =  -3.4673818281982E+00
(PID.TID 0000.0001) %MON dynstat_theta_mean           =   3.8023216582920E+00
(PID.TID 0000.0001) %MON dynstat_theta_sd             =   4.5124663731377E+00
(PID.TID 0000.0001) %MON dynstat_theta_del2           =   2.5983555994690E-03
(PID.TID 0000.0001) %MON dynstat_salt_max             =   3.7556810055199E+01
(PID.TID 0000.0001) %MON dynstat_salt_min             =   3.1484604009887E+01
(PID.TID 0000.0001) %MON dynstat_salt_mean            =   3.4614649470013E+01
(PID.TID 0000.0001) %MON dynstat_salt_sd              =   3.1408014544076E-01
(PID.TID 0000.0001) %MON dynstat_salt_del2            =   4.0540013472105E-04
(PID.TID 0000.0001) %MON dynstat_sst_max              =   3.0245572487658E+01
(PID.TID 0000.0001) %MON dynstat_sst_min              =  -1.9436012373876E+00
(PID.TID 0000.0001) %MON dynstat_sst_mean             =   1.8345980237587E+01
(PID.TID 0000.0001) %MON dynstat_sst_sd               =   9.2014254279780E+00
(PID.TID 0000.0001) %MON dynstat_sst_del2             =   1.4244087785784E-02
(PID.TID 0000.0001) %MON dynstat_sss_max              =   3.7556810055199E+01
(PID.TID 0000.0001) %MON dynstat_sss_min              =   3.1484604009887E+01
(PID.TID 0000.0001) %MON dynstat_sss_mean             =   3.4855849033406E+01
(PID.TID 0000.0001) %MON dynstat_sss_sd               =   9.5408397245019E-01
(PID.TID 0000.0001) %MON dynstat_sss_del2             =   3.0391465867742E-03
(PID.TID 0000.0001) %MON forcing_qnet_max             =   3.4840188824597E+02
(PID.TID 0000.0001) %MON forcing_qnet_min             =  -3.3216530782571E+02
(PID.TID 0000.0001) %MON forcing_qnet_mean            =  -8.2606358798127E+01
(PID.TID 0000.0001) %MON forcing_qnet_sd              =   9.8287611362721E+01
(PID.TID 0000.0001) %MON forcing_qnet_del2            =   5.9004994851516E-01
(PID.TID 0000.0001) %MON forcing_qsw_max              =   3.3124753756401E+01
(PID.TID 0000.0001) %MON forcing_qsw_min              =  -3.5303651729354E+02
(PID.TID 0000.0001) %MON forcing_qsw_mean             =  -1.9660975990747E+02
(PID.TID 0000.0001) %MON forcing_qsw_sd               =   7.3858814652194E+01
(PID.TID 0000.0001) %MON forcing_qsw_del2             =   3.3344791555241E-01
(PID.TID 0000.0001) %MON forcing_empmr_max            =   8.3151071950322E-04
(PID.TID 0000.0001) %MON forcing_empmr_min            =  -6.3514564310226E-04
(PID.TID 0000.0001) %MON forcing_empmr_mean           =  -1.4996136639672E-05
(PID.TID 0000.0001) %MON forcing_empmr_sd             =   4.3739806687401E-05
(PID.TID 0000.0001) %MON forcing_empmr_del2           =   8.5511440896229E-07
(PID.TID 0000.0001) %MON forcing_fu_max               =   1.3088182113455E-01
(PID.TID 0000.0001) %MON forcing_fu_min               =  -1.1232550413564E-01
(PID.TID 0000.0001) %MON forcing_fu_mean              =  -4.3548974463277E-03
(PID.TID 0000.0001) %MON forcing_fu_sd                =   4.0502143721068E-02
(PID.TID 0000.0001) %MON forcing_fu_del2              =   1.3881604444786E-04
(PID.TID 0000.0001) %MON forcing_fv_max               =   9.4387194767542E-02
(PID.TID 0000.0001) %MON forcing_fv_min               =  -9.3174792281174E-02
(PID.TID 0000.0001) %MON forcing_fv_mean              =  -3.3987076898314E-03
(PID.TID 0000.0001) %MON forcing_fv_sd                =   1.7648241371214E-02
(PID.TID 0000.0001) %MON forcing_fv_del2              =   8.2713092850944E-05
(PID.TID 0000.0001) %MON trAdv_CFL_u_max              =   2.2738240657840E-03
(PID.TID 0000.0001) %MON trAdv_CFL_v_max              =   8.2405731391726E-04
(PID.TID 0000.0001) %MON trAdv_CFL_w_max              =   1.9332152055809E-03
(PID.TID 0000.0001) %MON advcfl_uvel_max              =   2.2716306760176E-03
(PID.TID 0000.0001) %MON advcfl_vvel_max              =   8.2459068437726E-04
(PID.TID 0000.0001) %MON advcfl_wvel_max              =   1.6065313572034E-03
(PID.TID 0000.0001) %MON advcfl_W_hf_max              =   1.9332152055809E-03
(PID.TID 0000.0001) %MON pe_b_mean                    =   3.8985347073496E-04
(PID.TID 0000.0001) %MON ke_max                       =   3.0776416782636E-02
(PID.TID 0000.0001) %MON ke_mean                      =   1.0908481193096E-04
(PID.TID 0000.0001) %MON ke_vol                       =   1.2571476916160E+18
(PID.TID 0000.0001) %MON vort_r_min                   =  -8.8790929918347E-07
(PID.TID 0000.0001) %MON vort_r_max                   =   9.9155952156117E-07
(PID.TID 0000.0001) %MON vort_a_mean                  =  -2.4002453570026E-05
(PID.TID 0000.0001) %MON vort_a_sd                    =   7.3138175182406E-05
(PID.TID 0000.0001) %MON vort_p_mean                  =  -2.8585748550579E-05
(PID.TID 0000.0001) %MON vort_p_sd                    =   1.1454439827145E-04
(PID.TID 0000.0001) %MON surfExpan_theta_mean         =  -3.4846855192113E-06
(PID.TID 0000.0001) %MON surfExpan_salt_mean          =  -9.8445157414416E-08
(PID.TID 0000.0001) // =======================================================
(PID.TID 0000.0001) // End MONITOR dynamic field statistics
(PID.TID 0000.0001) // =======================================================
(PID.TID 0000.0001) // =======================================================
(PID.TID 0000.0001) // Begin MONITOR SEAICE statistics
(PID.TID 0000.0001) // =======================================================
(PID.TID 0000.0001) %MON seaice_tsnumber              =                     2
(PID.TID 0000.0001) %MON seaice_time_sec              =   2.4000000000000E+03
(PID.TID 0000.0001) %MON seaice_uice_max              =   2.9354123066036E-01
(PID.TID 0000.0001) %MON seaice_uice_min              =  -3.7703191722428E-01
(PID.TID 0000.0001) %MON seaice_uice_mean             =  -3.3488487978946E-03
(PID.TID 0000.0001) %MON seaice_uice_sd               =   1.0024253169681E-01
(PID.TID 0000.0001) %MON seaice_uice_del2             =   5.4587589936587E-04
(PID.TID 0000.0001) %MON seaice_vice_max              =   1.4618773686534E-01
(PID.TID 0000.0001) %MON seaice_vice_min              =  -2.6971855103859E-01
(PID.TID 0000.0001) %MON seaice_vice_mean             =  -5.9160091712360E-03
(PID.TID 0000.0001) %MON seaice_vice_sd               =   3.8970282736316E-02
(PID.TID 0000.0001) %MON seaice_vice_del2             =   3.3627906709865E-04
(PID.TID 0000.0001) %MON seaice_area_max              =   9.5000000000000E-01
(PID.TID 0000.0001) %MON seaice_area_min              =   0.0000000000000E+00
(PID.TID 0000.0001) %MON seaice_area_mean             =   4.7082044938753E-03
(PID.TID 0000.0001) %MON seaice_area_sd               =   6.6646436373298E-02
(PID.TID 0000.0001) %MON seaice_area_del2             =   1.9418933446309E-03
(PID.TID 0000.0001) %MON seaice_heff_max              =   1.0005133935915E+00
(PID.TID 0000.0001) %MON seaice_heff_min              =   0.0000000000000E+00
(PID.TID 0000.0001) %MON seaice_heff_mean             =   4.9498768527632E-03
(PID.TID 0000.0001) %MON seaice_heff_sd               =   7.0146472596677E-02
(PID.TID 0000.0001) %MON seaice_heff_del2             =   2.0463111846199E-03
(PID.TID 0000.0001) %MON seaice_hsnow_max             =   2.0021584304097E-01
(PID.TID 0000.0001) %MON seaice_hsnow_min             =   0.0000000000000E+00
(PID.TID 0000.0001) %MON seaice_hsnow_mean            =   9.8995880913547E-04
(PID.TID 0000.0001) %MON seaice_hsnow_sd              =   1.4035939207668E-02
(PID.TID 0000.0001) %MON seaice_hsnow_del2            =   4.0967167663268E-04
(PID.TID 0000.0001) // =======================================================
(PID.TID 0000.0001) // End MONITOR SEAICE statistics
(PID.TID 0000.0001) // =======================================================
(PID.TID 0000.0001) // =======================================================
(PID.TID 0000.0001) // Begin MONITOR ptracer field statistics
(PID.TID 0000.0001) // =======================================================
(PID.TID 0000.0001) %MON trcstat_ptracer01_max        =   2.4829318881105E+03
(PID.TID 0000.0001) %MON trcstat_ptracer01_min        =  -5.4579740975835E-01
(PID.TID 0000.0001) %MON trcstat_ptracer01_mean       =   2.0930835670089E+03
(PID.TID 0000.0001) %MON trcstat_ptracer01_sd         =   6.9249195767421E+02
(PID.TID 0000.0001) %MON trcstat_ptracer01_del2       =   4.4000224564226E+00
(PID.TID 0000.0001) %MON trcstat_ptracer02_max        =   4.9807226521856E+01
(PID.TID 0000.0001) %MON trcstat_ptracer02_min        =  -4.7113478343841E+00
(PID.TID 0000.0001) %MON trcstat_ptracer02_mean       =   2.8998129541350E+01
(PID.TID 0000.0001) %MON trcstat_ptracer02_sd         =   1.2490796509019E+01
(PID.TID 0000.0001) %MON trcstat_ptracer02_del2       =   6.2420090711700E-02
(PID.TID 0000.0001) %MON trcstat_ptracer03_max        =   9.6621057983895E-01
(PID.TID 0000.0001) %MON trcstat_ptracer03_min        =  -6.2138232996000E-02
(PID.TID 0000.0001) %MON trcstat_ptracer03_mean       =   3.2352353126318E-03
(PID.TID 0000.0001) %MON trcstat_ptracer03_sd         =   2.2961334685981E-02
(PID.TID 0000.0001) %MON trcstat_ptracer03_del2       =   1.8820546801918E-04
(PID.TID 0000.0001) %MON trcstat_ptracer04_max        =   1.9524738218137E-01
(PID.TID 0000.0001) %MON trcstat_ptracer04_min        =  -4.1932643466591E-03
(PID.TID 0000.0001) %MON trcstat_ptracer04_mean       =   3.3884089707726E-04
(PID.TID 0000.0001) %MON trcstat_ptracer04_sd         =   2.8023716202616E-03
(PID.TID 0000.0001) %MON trcstat_ptracer04_del2       =   2.5162345494498E-05
(PID.TID 0000.0001) %MON trcstat_ptracer05_max        =   3.5612010869184E+00
(PID.TID 0000.0001) %MON trcstat_ptracer05_min        =  -3.9343319649163E-01
(PID.TID 0000.0001) %MON trcstat_ptracer05_mean       =   2.0337887788344E+00
(PID.TID 0000.0001) %MON trcstat_ptracer05_sd         =   8.8529039098188E-01
(PID.TID 0000.0001) %MON trcstat_ptracer05_del2       =   4.3551775448907E-03
(PID.TID 0000.0001) %MON trcstat_ptracer06_max        =   1.0530754821372E-03
(PID.TID 0000.0001) %MON trcstat_ptracer06_min        =  -1.0713279455682E-04
(PID.TID 0000.0001) %MON trcstat_ptracer06_mean       =   4.8884988090993E-04
(PID.TID 0000.0001) %MON trcstat_ptracer06_sd         =   1.9301661269088E-04
(PID.TID 0000.0001) %MON trcstat_ptracer06_del2       =   1.2612251883617E-06
(PID.TID 0000.0001) %MON trcstat_ptracer07_max        =   2.2760192066636E+02
(PID.TID 0000.0001) %MON trcstat_ptracer07_min        =  -8.7269574514407E+00
(PID.TID 0000.0001) %MON trcstat_ptracer07_mean       =   8.4966364470440E+01
(PID.TID 0000.0001) %MON trcstat_ptracer07_sd         =   5.5747299644948E+01
(PID.TID 0000.0001) %MON trcstat_ptracer07_del2       =   2.2098301733200E-01
(PID.TID 0000.0001) %MON trcstat_ptracer08_max        =   7.3317989432101E+01
(PID.TID 0000.0001) %MON trcstat_ptracer08_min        =  -3.8492612121161E+00
(PID.TID 0000.0001) %MON trcstat_ptracer08_mean       =   4.5141745246220E-01
(PID.TID 0000.0001) %MON trcstat_ptracer08_sd         =   3.1056159178352E+00
(PID.TID 0000.0001) %MON trcstat_ptracer08_del2       =   1.5963012804920E-02
(PID.TID 0000.0001) %MON trcstat_ptracer09_max        =   5.9765409308927E+00
(PID.TID 0000.0001) %MON trcstat_ptracer09_min        =  -2.8360646049308E-01
(PID.TID 0000.0001) %MON trcstat_ptracer09_mean       =   2.9610528592147E-02
(PID.TID 0000.0001) %MON trcstat_ptracer09_sd         =   2.3864866841321E-01
(PID.TID 0000.0001) %MON trcstat_ptracer09_del2       =   1.4177695133137E-03
(PID.TID 0000.0001) %MON trcstat_ptracer10_max        =   3.7353380818079E-01
(PID.TID 0000.0001) %MON trcstat_ptracer10_min        =  -1.7725403780817E-02
(PID.TID 0000.0001) %MON trcstat_ptracer10_mean       =   1.8506580370092E-03
(PID.TID 0000.0001) %MON trcstat_ptracer10_sd         =   1.4915541775825E-02
(PID.TID 0000.0001) %MON trcstat_ptracer10_del2       =   8.8610594582105E-05
(PID.TID 0000.0001) %MON trcstat_ptracer11_max        =   3.7353380818126E-04
(PID.TID 0000.0001) %MON trcstat_ptracer11_min        =  -1.7725404347894E-05
(PID.TID 0000.0001) %MON trcstat_ptracer11_mean       =   1.8506580350590E-06
(PID.TID 0000.0001) %MON trcstat_ptracer11_sd         =   1.4915541758378E-05
(PID.TID 0000.0001) %MON trcstat_ptracer11_del2       =   8.8610594391578E-08
(PID.TID 0000.0001) %MON trcstat_ptracer12_max        =   4.6019492508940E+01
(PID.TID 0000.0001) %MON trcstat_ptracer12_min        =  -6.0937642985538E-01
(PID.TID 0000.0001) %MON trcstat_ptracer12_mean       =   1.3613322475783E-01
(PID.TID 0000.0001) %MON trcstat_ptracer12_sd         =   2.5072737426802E-01
(PID.TID 0000.0001) %MON trcstat_ptracer12_del2       =   2.3234233418177E-03
(PID.TID 0000.0001) %MON trcstat_ptracer13_max        =   3.5662478978491E+00
(PID.TID 0000.0001) %MON trcstat_ptracer13_min        =  -7.7519518238237E-02
(PID.TID 0000.0001) %MON trcstat_ptracer13_mean       =   8.5926892083395E-03
(PID.TID 0000.0001) %MON trcstat_ptracer13_sd         =   2.3470689150718E-02
(PID.TID 0000.0001) %MON trcstat_ptracer13_del2       =   2.0839146900984E-04
(PID.TID 0000.0001) %MON trcstat_ptracer14_max        =   2.2289049361557E-01
(PID.TID 0000.0001) %MON trcstat_ptracer14_min        =  -4.8449698898898E-03
(PID.TID 0000.0001) %MON trcstat_ptracer14_mean       =   5.3704307552102E-04
(PID.TID 0000.0001) %MON trcstat_ptracer14_sd         =   1.4669180719198E-03
(PID.TID 0000.0001) %MON trcstat_ptracer14_del2       =   1.3024466813113E-05
(PID.TID 0000.0001) %MON trcstat_ptracer15_max        =   2.2289050033632E-04
(PID.TID 0000.0001) %MON trcstat_ptracer15_min        =  -4.8449698279751E-06
(PID.TID 0000.0001) %MON trcstat_ptracer15_mean       =   5.3704307542308E-07
(PID.TID 0000.0001) %MON trcstat_ptracer15_sd         =   1.4669180744978E-06
(PID.TID 0000.0001) %MON trcstat_ptracer15_del2       =   1.3024466860829E-08
(PID.TID 0000.0001) %MON trcstat_ptracer16_max        =   9.7980740020572E+00
(PID.TID 0000.0001) %MON trcstat_ptracer16_min        =  -2.8461541938537E-01
(PID.TID 0000.0001) %MON trcstat_ptracer16_mean       =   7.1253753294056E-02
(PID.TID 0000.0001) %MON trcstat_ptracer16_sd         =   1.6086489431350E-01
(PID.TID 0000.0001) %MON trcstat_ptracer16_del2       =   1.3565955374682E-03
(PID.TID 0000.0001) %MON trcstat_ptracer17_max        =   7.6186643250864E+00
(PID.TID 0000.0001) %MON trcstat_ptracer17_min        =  -3.3330880967793E-02
(PID.TID 0000.0001) %MON trcstat_ptracer17_mean       =   1.4224191914024E-02
(PID.TID 0000.0001) %MON trcstat_ptracer17_sd         =   3.2644525828322E-02
(PID.TID 0000.0001) %MON trcstat_ptracer17_del2       =   3.3001371177095E-04
(PID.TID 0000.0001) %MON trcstat_ptracer18_max        =   2.5635030889414E+03
(PID.TID 0000.0001) %MON trcstat_ptracer18_min        =  -5.7297333419456E-01
(PID.TID 0000.0001) %MON trcstat_ptracer18_mean       =   2.1897936483736E+03
(PID.TID 0000.0001) %MON trcstat_ptracer18_sd         =   7.2178168922965E+02
(PID.TID 0000.0001) %MON trcstat_ptracer18_del2       =   4.6126618328526E+00
(PID.TID 0000.0001) %MON trcstat_ptracer19_max        =   4.0532298280954E+02
(PID.TID 0000.0001) %MON trcstat_ptracer19_min        =  -4.3327188670579E+01
(PID.TID 0000.0001) %MON trcstat_ptracer19_mean       =   1.5850141024633E+02
(PID.TID 0000.0001) %MON trcstat_ptracer19_sd         =   7.9791461776223E+01
(PID.TID 0000.0001) %MON trcstat_ptracer19_del2       =   3.9687557313321E-01
(PID.TID 0000.0001) %MON trcstat_ptracer20_max        =   9.7408690800323E+00
(PID.TID 0000.0001) %MON trcstat_ptracer20_min        =  -1.9591072911133E+00
(PID.TID 0000.0001) %MON trcstat_ptracer20_mean       =   7.5687989612950E-03
(PID.TID 0000.0001) %MON trcstat_ptracer20_sd         =   1.3708407299339E-01
(PID.TID 0000.0001) %MON trcstat_ptracer20_del2       =   1.8401611258583E-03
(PID.TID 0000.0001) %MON trcstat_ptracer21_max        =   8.1017181427410E+00
(PID.TID 0000.0001) %MON trcstat_ptracer21_min        =  -1.7511141738342E+00
(PID.TID 0000.0001) %MON trcstat_ptracer21_mean       =   4.1676397466304E-03
(PID.TID 0000.0001) %MON trcstat_ptracer21_sd         =   7.0636967263772E-02
(PID.TID 0000.0001) %MON trcstat_ptracer21_del2       =   1.1198787567413E-03
(PID.TID 0000.0001) %MON trcstat_ptracer22_max        =   7.6601066610723E+00
(PID.TID 0000.0001) %MON trcstat_ptracer22_min        =  -1.5895788167161E+00
(PID.TID 0000.0001) %MON trcstat_ptracer22_mean       =   3.2006784657518E-03
(PID.TID 0000.0001) %MON trcstat_ptracer22_sd         =   6.2092877750672E-02
(PID.TID 0000.0001) %MON trcstat_ptracer22_del2       =   8.4775566445974E-04
(PID.TID 0000.0001) %MON trcstat_ptracer23_max        =   3.3487596140604E-02
(PID.TID 0000.0001) %MON trcstat_ptracer23_min        =  -6.1639154199722E-02
(PID.TID 0000.0001) %MON trcstat_ptracer23_mean       =  -3.6305173382984E-06
(PID.TID 0000.0001) %MON trcstat_ptracer23_sd         =   3.9544983030415E-04
(PID.TID 0000.0001) %MON trcstat_ptracer23_del2       =   5.2874826287291E-06
(PID.TID 0000.0001) %MON trcstat_ptracer24_max        =   2.5747089409965E+00
(PID.TID 0000.0001) %MON trcstat_ptracer24_min        =  -4.5882131173163E-01
(PID.TID 0000.0001) %MON trcstat_ptracer24_mean       =   6.6551796976131E-03
(PID.TID 0000.0001) %MON trcstat_ptracer24_sd         =   7.8101885345784E-02
(PID.TID 0000.0001) %MON trcstat_ptracer24_del2       =   5.1018352290421E-04
(PID.TID 0000.0001) %MON trcstat_ptracer25_max        =   2.6786014925521E+00
(PID.TID 0000.0001) %MON trcstat_ptracer25_min        =  -4.7147047185451E-01
(PID.TID 0000.0001) %MON trcstat_ptracer25_mean       =   2.0729989834030E-03
(PID.TID 0000.0001) %MON trcstat_ptracer25_sd         =   3.7817554762170E-02
(PID.TID 0000.0001) %MON trcstat_ptracer25_del2       =   4.1070771927675E-04
(PID.TID 0000.0001) %MON trcstat_ptracer26_max        =   7.2528432122508E+00
(PID.TID 0000.0001) %MON trcstat_ptracer26_min        =  -1.8791678396704E+00
(PID.TID 0000.0001) %MON trcstat_ptracer26_mean       =   5.6067105454901E-03
(PID.TID 0000.0001) %MON trcstat_ptracer26_sd         =   1.1291101122408E-01
(PID.TID 0000.0001) %MON trcstat_ptracer26_del2       =   1.2767272266651E-03
(PID.TID 0000.0001) %MON trcstat_ptracer27_max        =   7.4827191689702E+00
(PID.TID 0000.0001) %MON trcstat_ptracer27_min        =  -5.6563712530529E-01
(PID.TID 0000.0001) %MON trcstat_ptracer27_mean       =   2.7750813858172E-03
(PID.TID 0000.0001) %MON trcstat_ptracer27_sd         =   4.7066800548308E-02
(PID.TID 0000.0001) %MON trcstat_ptracer27_del2       =   7.8134696724419E-04
(PID.TID 0000.0001) %MON trcstat_ptracer28_max        =   1.5034889097022E+01
(PID.TID 0000.0001) %MON trcstat_ptracer28_min        =  -6.4865955446069E-01
(PID.TID 0000.0001) %MON trcstat_ptracer28_mean       =   1.8699446163860E-03
(PID.TID 0000.0001) %MON trcstat_ptracer28_sd         =   4.6517005778517E-02
(PID.TID 0000.0001) %MON trcstat_ptracer28_del2       =   1.1589213849296E-03
(PID.TID 0000.0001) %MON trcstat_ptracer29_max        =   9.4827006130777E-01
(PID.TID 0000.0001) %MON trcstat_ptracer29_min        =  -1.6446552756461E-01
(PID.TID 0000.0001) %MON trcstat_ptracer29_mean       =   3.5466925377718E-04
(PID.TID 0000.0001) %MON trcstat_ptracer29_sd         =   7.4408478593927E-03
(PID.TID 0000.0001) %MON trcstat_ptracer29_del2       =   1.1996831732650E-04
(PID.TID 0000.0001) %MON trcstat_ptracer30_max        =   2.4431526357365E-03
(PID.TID 0000.0001) %MON trcstat_ptracer30_min        =  -3.6786104011665E-03
(PID.TID 0000.0001) %MON trcstat_ptracer30_mean       =  -2.1242541151650E-07
(PID.TID 0000.0001) %MON trcstat_ptracer30_sd         =   2.5281893021166E-05
(PID.TID 0000.0001) %MON trcstat_ptracer30_del2       =   3.5974127746644E-07
(PID.TID 0000.0001) %MON trcstat_ptracer31_max        =   2.8865040586203E+02
(PID.TID 0000.0001) %MON trcstat_ptracer31_min        =  -1.3374757634069E-01
(PID.TID 0000.0001) %MON trcstat_ptracer31_mean       =   1.0197145286064E-01
(PID.TID 0000.0001) %MON trcstat_ptracer31_sd         =   3.5111213675473E+00
(PID.TID 0000.0001) %MON trcstat_ptracer31_del2       =   2.1711457150478E-02
(PID.TID 0000.0001) // =======================================================
(PID.TID 0000.0001) // End MONITOR ptracer field statistics
(PID.TID 0000.0001) // =======================================================
(PID.TID 0000.0001) // =======================================================
(PID.TID 0000.0001) // Begin MONITOR EXF statistics
(PID.TID 0000.0001) // =======================================================
(PID.TID 0000.0001) %MON exf_tsnumber                 =                     2
(PID.TID 0000.0001) %MON exf_time_sec                 =   2.4000000000000E+03
(PID.TID 0000.0001) %MON exf_ustress_max              =   1.3194442619682E-01
(PID.TID 0000.0001) %MON exf_ustress_min              =  -1.1243434875788E-01
(PID.TID 0000.0001) %MON exf_ustress_mean             =  -4.4188381980854E-03
(PID.TID 0000.0001) %MON exf_ustress_sd               =   4.0087850545053E-02
(PID.TID 0000.0001) %MON exf_ustress_del2             =   1.4489968137095E-04
(PID.TID 0000.0001) %MON exf_vstress_max              =   9.9480903971240E-02
(PID.TID 0000.0001) %MON exf_vstress_min              =  -1.0041747909319E-01
(PID.TID 0000.0001) %MON exf_vstress_mean             =  -3.5083281022633E-03
(PID.TID 0000.0001) %MON exf_vstress_sd               =   1.8014040297405E-02
(PID.TID 0000.0001) %MON exf_vstress_del2             =   9.7282462860478E-05
(PID.TID 0000.0001) %MON exf_hflux_max                =   4.1331916199364E+02
(PID.TID 0000.0001) %MON exf_hflux_min                =  -3.3215223001376E+02
(PID.TID 0000.0001) %MON exf_hflux_mean               =  -8.1850766987869E+01
(PID.TID 0000.0001) %MON exf_hflux_sd                 =   1.0067767976223E+02
(PID.TID 0000.0001) %MON exf_hflux_del2               =   5.7644728854154E-01
(PID.TID 0000.0001) %MON exf_sflux_max                =   8.5103263672926E-08
(PID.TID 0000.0001) %MON exf_sflux_min                =  -6.3529300240675E-07
(PID.TID 0000.0001) %MON exf_sflux_mean               =  -1.5665262524589E-08
(PID.TID 0000.0001) %MON exf_sflux_sd                 =   3.7495383123379E-08
(PID.TID 0000.0001) %MON exf_sflux_del2               =   3.1062616961004E-10
(PID.TID 0000.0001) %MON exf_uwind_max                =   9.5215692334394E+00
(PID.TID 0000.0001) %MON exf_uwind_min                =  -8.7608520312153E+00
(PID.TID 0000.0001) %MON exf_uwind_mean               =  -4.9437852332798E-01
(PID.TID 0000.0001) %MON exf_uwind_sd                 =   4.4177522964510E+00
(PID.TID 0000.0001) %MON exf_uwind_del2               =   1.2107243110252E-02
(PID.TID 0000.0001) %MON exf_vwind_max                =   8.7166669669167E+00
(PID.TID 0000.0001) %MON exf_vwind_min                =  -6.9961808089352E+00
(PID.TID 0000.0001) %MON exf_vwind_mean               =  -3.7888913512947E-01
(PID.TID 0000.0001) %MON exf_vwind_sd                 =   2.2078221182342E+00
(PID.TID 0000.0001) %MON exf_vwind_del2               =   9.5074294476282E-03
(PID.TID 0000.0001) %MON exf_wspeed_max               =   9.5372063545758E+00
(PID.TID 0000.0001) %MON exf_wspeed_min               =   4.8936522265739E-02
(PID.TID 0000.0001) %MON exf_wspeed_mean              =   4.4775299254489E+00
(PID.TID 0000.0001) %MON exf_wspeed_sd                =   2.1750187875784E+00
(PID.TID 0000.0001) %MON exf_wspeed_del2              =   2.0414469717659E-02
(PID.TID 0000.0001) %MON exf_atemp_max                =   3.0188427489842E+02
(PID.TID 0000.0001) %MON exf_atemp_min                =   2.4476984350958E+02
(PID.TID 0000.0001) %MON exf_atemp_mean               =   2.9041296495261E+02
(PID.TID 0000.0001) %MON exf_atemp_sd                 =   9.7907391176056E+00
(PID.TID 0000.0001) %MON exf_atemp_del2               =   3.1162720463088E-02
(PID.TID 0000.0001) %MON exf_aqh_max                  =   1.9837939323210E-02
(PID.TID 0000.0001) %MON exf_aqh_min                  =   3.5620369104323E-04
(PID.TID 0000.0001) %MON exf_aqh_mean                 =   1.1235062465278E-02
(PID.TID 0000.0001) %MON exf_aqh_sd                   =   5.1802683215637E-03
(PID.TID 0000.0001) %MON exf_aqh_del2                 =   1.8226075988539E-05
(PID.TID 0000.0001) %MON exf_lwflux_max               =   1.5497262738292E+02
(PID.TID 0000.0001) %MON exf_lwflux_min               =   4.3044188771224E+00
(PID.TID 0000.0001) %MON exf_lwflux_mean              =   4.1311375355456E+01
(PID.TID 0000.0001) %MON exf_lwflux_sd                =   1.3587966560306E+01
(PID.TID 0000.0001) %MON exf_lwflux_del2              =   1.1679124583247E-01
(PID.TID 0000.0001) %MON exf_evap_max                 =   8.5138594059217E-08
(PID.TID 0000.0001) %MON exf_evap_min                 =  -1.2829434505210E-08
(PID.TID 0000.0001) %MON exf_evap_mean                =   2.6032785748090E-08
(PID.TID 0000.0001) %MON exf_evap_sd                  =   1.7973835223374E-08
(PID.TID 0000.0001) %MON exf_evap_del2                =   1.3130605061781E-10
(PID.TID 0000.0001) %MON exf_precip_max               =   1.4862099182759E-07
(PID.TID 0000.0001) %MON exf_precip_min               =  -8.5438744638380E-09
(PID.TID 0000.0001) %MON exf_precip_mean              =   3.9996725212387E-08
(PID.TID 0000.0001) %MON exf_precip_sd                =   2.9092488016841E-08
(PID.TID 0000.0001) %MON exf_precip_del2              =   2.5063935619630E-10
(PID.TID 0000.0001) %MON exf_swflux_max               =   3.3127630748876E+01
(PID.TID 0000.0001) %MON exf_swflux_min               =  -3.5303455776161E+02
(PID.TID 0000.0001) %MON exf_swflux_mean              =  -1.9692465684652E+02
(PID.TID 0000.0001) %MON exf_swflux_sd                =   7.3604031100729E+01
(PID.TID 0000.0001) %MON exf_swflux_del2              =   4.2113449243276E-01
(PID.TID 0000.0001) %MON exf_swdown_max               =   3.8080702290991E+02
(PID.TID 0000.0001) %MON exf_swdown_min               =  -4.7325186784109E+01
(PID.TID 0000.0001) %MON exf_swdown_mean              =   2.1342984684822E+02
(PID.TID 0000.0001) %MON exf_swdown_sd                =   7.8891750690909E+01
(PID.TID 0000.0001) %MON exf_swdown_del2              =   4.5659218311832E-01
(PID.TID 0000.0001) %MON exf_lwdown_max               =   4.4360406892950E+02
(PID.TID 0000.0001) %MON exf_lwdown_min               =   1.5697026704671E+02
(PID.TID 0000.0001) %MON exf_lwdown_mean              =   3.6918899677707E+02
(PID.TID 0000.0001) %MON exf_lwdown_sd                =   5.1749317452138E+01
(PID.TID 0000.0001) %MON exf_lwdown_del2              =   6.4193974630721E-01
(PID.TID 0000.0001) %MON exf_runoff_max               =   5.5109557435726E-07
(PID.TID 0000.0001) %MON exf_runoff_min               =   0.0000000000000E+00
(PID.TID 0000.0001) %MON exf_runoff_mean              =   1.7013230602916E-09
(PID.TID 0000.0001) %MON exf_runoff_sd                =   1.1343635883165E-08
(PID.TID 0000.0001) %MON exf_runoff_del2              =   1.2557226867259E-10
(PID.TID 0000.0001) // =======================================================
(PID.TID 0000.0001) // End MONITOR EXF statistics
(PID.TID 0000.0001) // =======================================================
(PID.TID 0000.0001) // =======================================================
(PID.TID 0000.0001) // Begin MONITOR DARWIN statistics
(PID.TID 0000.0001) // =======================================================
(PID.TID 0000.0001) %MON darwin_tsnumber              =                     2
(PID.TID 0000.0001) %MON darwin_time_sec              =   2.4000000000000E+03
(PID.TID 0000.0001) %MON darwin_surfPAR_max           =   0.0000000000000E+00
(PID.TID 0000.0001) %MON darwin_surfPAR_min           =   0.0000000000000E+00
(PID.TID 0000.0001) %MON darwin_surfPAR_mean          =   0.0000000000000E+00
(PID.TID 0000.0001) %MON darwin_surfPAR_sd            =   0.0000000000000E+00
(PID.TID 0000.0001) %MON darwin_surfPAR_del2          =   0.0000000000000E+00
(PID.TID 0000.0001) %MON darwin_inputFe_max           =   2.1153046175328E-09
(PID.TID 0000.0001) %MON darwin_inputFe_min           =   0.0000000000000E+00
(PID.TID 0000.0001) %MON darwin_inputFe_mean          =   2.0739346520514E-10
(PID.TID 0000.0001) %MON darwin_inputFe_sd            =   2.3902259711386E-10
(PID.TID 0000.0001) %MON darwin_inputFe_del2          =   9.6956396647835E-13
(PID.TID 0000.0001) %MON darwin_iceFrac_max           =   9.5000000000000E-01
(PID.TID 0000.0001) %MON darwin_iceFrac_min           =   0.0000000000000E+00
(PID.TID 0000.0001) %MON darwin_iceFrac_mean          =   4.7082044938753E-03
(PID.TID 0000.0001) %MON darwin_iceFrac_sd            =   6.6646436373298E-02
(PID.TID 0000.0001) %MON darwin_iceFrac_del2          =   1.9418933446309E-03
(PID.TID 0000.0001) %MON darwin_windSpeed_max         =   9.5372063545758E+00
(PID.TID 0000.0001) %MON darwin_windSpeed_min         =   4.8936522265739E-02
(PID.TID 0000.0001) %MON darwin_windSpeed_mean        =   4.4775299254489E+00
(PID.TID 0000.0001) %MON darwin_windSpeed_sd          =   2.1750187875784E+00
(PID.TID 0000.0001) %MON darwin_windSpeed_del2        =   2.0414469717659E-02
(PID.TID 0000.0001) %MON darwin_atmospCO2_max         =   3.7074075135513E-04
(PID.TID 0000.0001) %MON darwin_atmospCO2_min         =   3.6819534747709E-04
(PID.TID 0000.0001) %MON darwin_atmospCO2_mean        =   3.6882198231213E-04
(PID.TID 0000.0001) %MON darwin_atmospCO2_sd          =   5.2297004796026E-07
(PID.TID 0000.0001) %MON darwin_atmospCO2_del2        =   9.8113143172387E-11
(PID.TID 0000.0001) // =======================================================
(PID.TID 0000.0001) // End MONITOR DARWIN statistics
(PID.TID 0000.0001) // =======================================================
 cg2d: Sum(rhs),rhsMax =  -8.45872614621167E-01  1.11428980951792E+01
(PID.TID 0000.0001)      cg2d_init_res =   3.83742192534787E+00
(PID.TID 0000.0001)      cg2d_iters(min,last) =      -1      15
(PID.TID 0000.0001)      cg2d_last_res =   1.12842643935115E-05
(PID.TID 0000.0001) // =======================================================
(PID.TID 0000.0001) // Begin MONITOR dynamic field statistics
(PID.TID 0000.0001) // =======================================================
(PID.TID 0000.0001) %MON time_tsnumber                =                     3
(PID.TID 0000.0001) %MON time_secondsf                =   3.6000000000000E+03
(PID.TID 0000.0001) %MON dynstat_eta_max              =   9.2458818893971E-01
(PID.TID 0000.0001) %MON dynstat_eta_min              =  -2.2986794577151E+00
(PID.TID 0000.0001) %MON dynstat_eta_mean             =   5.2397661312480E-05
(PID.TID 0000.0001) %MON dynstat_eta_sd               =   5.5604880289863E-01
(PID.TID 0000.0001) %MON dynstat_eta_del2             =   2.0188109850966E-03
(PID.TID 0000.0001) %MON dynstat_uvel_max             =   1.9374365876975E-01
(PID.TID 0000.0001) %MON dynstat_uvel_min             =  -2.3436783427298E-01
(PID.TID 0000.0001) %MON dynstat_uvel_mean            =   1.8221072289695E-03
(PID.TID 0000.0001) %MON dynstat_uvel_sd              =   1.3005590906089E-02
(PID.TID 0000.0001) %MON dynstat_uvel_del2            =   5.3207767507343E-05
(PID.TID 0000.0001) %MON dynstat_vvel_max             =   1.3639532228490E-01
(PID.TID 0000.0001) %MON dynstat_vvel_min             =  -2.1352939735124E-01
(PID.TID 0000.0001) %MON dynstat_vvel_mean            =  -9.6373939873447E-04
(PID.TID 0000.0001) %MON dynstat_vvel_sd              =   8.2882857200885E-03
(PID.TID 0000.0001) %MON dynstat_vvel_del2            =   4.4199572351717E-05
(PID.TID 0000.0001) %MON dynstat_wvel_max             =   2.1071716682591E-04
(PID.TID 0000.0001) %MON dynstat_wvel_min             =  -3.5488212405102E-04
(PID.TID 0000.0001) %MON dynstat_wvel_mean            =   1.1160370723932E-08
(PID.TID 0000.0001) %MON dynstat_wvel_sd              =   8.9946561497568E-06
(PID.TID 0000.0001) %MON dynstat_wvel_del2            =   7.4607912570281E-08
(PID.TID 0000.0001) %MON dynstat_theta_max            =   3.0245098343858E+01
(PID.TID 0000.0001) %MON dynstat_theta_min            =  -3.4673536228764E+00
(PID.TID 0000.0001) %MON dynstat_theta_mean           =   3.8023284001922E+00
(PID.TID 0000.0001) %MON dynstat_theta_sd             =   4.5124801234517E+00
(PID.TID 0000.0001) %MON dynstat_theta_del2           =   2.5978028344434E-03
(PID.TID 0000.0001) %MON dynstat_salt_max             =   3.7556788154760E+01
(PID.TID 0000.0001) %MON dynstat_salt_min             =   3.1484610264989E+01
(PID.TID 0000.0001) %MON dynstat_salt_mean            =   3.4614649321479E+01
(PID.TID 0000.0001) %MON dynstat_salt_sd              =   3.1407911104305E-01
(PID.TID 0000.0001) %MON dynstat_salt_del2            =   4.0532609973668E-04
(PID.TID 0000.0001) %MON dynstat_sst_max              =   3.0245098343858E+01
(PID.TID 0000.0001) %MON dynstat_sst_min              =  -1.9430568574401E+00
(PID.TID 0000.0001) %MON dynstat_sst_mean             =   1.8346264126953E+01
(PID.TID 0000.0001) %MON dynstat_sst_sd               =   9.2011624493262E+00
(PID.TID 0000.0001) %MON dynstat_sst_del2             =   1.4239312660612E-02
(PID.TID 0000.0001) %MON dynstat_sss_max              =   3.7556788154760E+01
(PID.TID 0000.0001) %MON dynstat_sss_min              =   3.1484610264989E+01
(PID.TID 0000.0001) %MON dynstat_sss_mean             =   3.4855857921780E+01
(PID.TID 0000.0001) %MON dynstat_sss_sd               =   9.5406524021760E-01
(PID.TID 0000.0001) %MON dynstat_sss_del2             =   3.0383621789440E-03
(PID.TID 0000.0001) %MON forcing_qnet_max             =   3.4799572715486E+02
(PID.TID 0000.0001) %MON forcing_qnet_min             =  -3.3215223001376E+02
(PID.TID 0000.0001) %MON forcing_qnet_mean            =  -8.2606080887564E+01
(PID.TID 0000.0001) %MON forcing_qnet_sd              =   9.8293387543921E+01
(PID.TID 0000.0001) %MON forcing_qnet_del2            =   5.9556334739552E-01
(PID.TID 0000.0001) %MON forcing_qsw_max              =   3.3127630748876E+01
(PID.TID 0000.0001) %MON forcing_qsw_min              =  -3.5303455776161E+02
(PID.TID 0000.0001) %MON forcing_qsw_mean             =  -1.9660908914408E+02
(PID.TID 0000.0001) %MON forcing_qsw_sd               =   7.3856525678156E+01
(PID.TID 0000.0001) %MON forcing_qsw_del2             =   3.3321825365750E-01
(PID.TID 0000.0001) %MON forcing_empmr_max            =   8.2927222195723E-04
(PID.TID 0000.0001) %MON forcing_empmr_min            =  -6.3529300240675E-04
(PID.TID 0000.0001) %MON forcing_empmr_mean           =  -1.4985096447602E-05
(PID.TID 0000.0001) %MON forcing_empmr_sd             =   4.3785241132658E-05
(PID.TID 0000.0001) %MON forcing_empmr_del2           =   8.7408346843247E-07
(PID.TID 0000.0001) %MON forcing_fu_max               =   1.3086839892445E-01
(PID.TID 0000.0001) %MON forcing_fu_min               =  -1.1233328386300E-01
(PID.TID 0000.0001) %MON forcing_fu_mean              =  -4.3637557443525E-03
(PID.TID 0000.0001) %MON forcing_fu_sd                =   4.0502148107038E-02
(PID.TID 0000.0001) %MON forcing_fu_del2              =   1.4017644691034E-04
(PID.TID 0000.0001) %MON forcing_fv_max               =   9.4389935229591E-02
(PID.TID 0000.0001) %MON forcing_fv_min               =  -9.5196498217872E-02
(PID.TID 0000.0001) %MON forcing_fv_mean              =  -3.4033766248735E-03
(PID.TID 0000.0001) %MON forcing_fv_sd                =   1.7678072580047E-02
(PID.TID 0000.0001) %MON forcing_fv_del2              =   8.2835489678208E-05
(PID.TID 0000.0001) %MON trAdv_CFL_u_max              =   2.7781772666960E-03
(PID.TID 0000.0001) %MON trAdv_CFL_v_max              =   8.1893366721835E-04
(PID.TID 0000.0001) %MON trAdv_CFL_w_max              =   2.3166055889321E-03
(PID.TID 0000.0001) %MON advcfl_uvel_max              =   2.7707720504300E-03
(PID.TID 0000.0001) %MON advcfl_vvel_max              =   8.1946345294890E-04
(PID.TID 0000.0001) %MON advcfl_wvel_max              =   1.9253634155170E-03
(PID.TID 0000.0001) %MON advcfl_W_hf_max              =   2.3166055889321E-03
(PID.TID 0000.0001) %MON pe_b_mean                    =   3.8284452054250E-04
(PID.TID 0000.0001) %MON ke_max                       =   3.0345640236028E-02
(PID.TID 0000.0001) %MON ke_mean                      =   1.1202674733474E-04
(PID.TID 0000.0001) %MON ke_vol                       =   1.2571476973929E+18
(PID.TID 0000.0001) %MON vort_r_min                   =  -1.0242426255170E-06
(PID.TID 0000.0001) %MON vort_r_max                   =   1.0674669275429E-06
(PID.TID 0000.0001) %MON vort_a_mean                  =  -2.4002453570026E-05
(PID.TID 0000.0001) %MON vort_a_sd                    =   7.3138173976843E-05
(PID.TID 0000.0001) %MON vort_p_mean                  =  -2.8585748363915E-05
(PID.TID 0000.0001) %MON vort_p_sd                    =   1.1454435741764E-04
(PID.TID 0000.0001) %MON surfExpan_theta_mean         =  -4.5615084932139E-06
(PID.TID 0000.0001) %MON surfExpan_salt_mean          =  -1.3419475353974E-07
(PID.TID 0000.0001) // =======================================================
(PID.TID 0000.0001) // End MONITOR dynamic field statistics
(PID.TID 0000.0001) // =======================================================
(PID.TID 0000.0001) // =======================================================
(PID.TID 0000.0001) // Begin MONITOR SEAICE statistics
(PID.TID 0000.0001) // =======================================================
(PID.TID 0000.0001) %MON seaice_tsnumber              =                     3
(PID.TID 0000.0001) %MON seaice_time_sec              =   3.6000000000000E+03
(PID.TID 0000.0001) %MON seaice_uice_max              =   2.8445960180930E-01
(PID.TID 0000.0001) %MON seaice_uice_min              =  -3.6317046743164E-01
(PID.TID 0000.0001) %MON seaice_uice_mean             =  -3.9134596902754E-03
(PID.TID 0000.0001) %MON seaice_uice_sd               =   9.9796149538949E-02
(PID.TID 0000.0001) %MON seaice_uice_del2             =   5.3537141271906E-04
(PID.TID 0000.0001) %MON seaice_vice_max              =   1.4686867151536E-01
(PID.TID 0000.0001) %MON seaice_vice_min              =  -2.6694802308539E-01
(PID.TID 0000.0001) %MON seaice_vice_mean             =  -6.9947200248371E-03
(PID.TID 0000.0001) %MON seaice_vice_sd               =   3.9512538817369E-02
(PID.TID 0000.0001) %MON seaice_vice_del2             =   3.4221861979651E-04
(PID.TID 0000.0001) %MON seaice_area_max              =   9.5000000000000E-01
(PID.TID 0000.0001) %MON seaice_area_min              =   0.0000000000000E+00
(PID.TID 0000.0001) %MON seaice_area_mean             =   4.7128752226187E-03
(PID.TID 0000.0001) %MON seaice_area_sd               =   6.6632638013200E-02
(PID.TID 0000.0001) %MON seaice_area_del2             =   1.9390510988410E-03
(PID.TID 0000.0001) %MON seaice_heff_max              =   1.0009421528907E+00
(PID.TID 0000.0001) %MON seaice_heff_min              =   0.0000000000000E+00
(PID.TID 0000.0001) %MON seaice_heff_mean             =   4.9508005107462E-03
(PID.TID 0000.0001) %MON seaice_heff_sd               =   7.0133022463528E-02
(PID.TID 0000.0001) %MON seaice_heff_del2             =   2.0449851529109E-03
(PID.TID 0000.0001) %MON seaice_hsnow_max             =   2.0035274177366E-01
(PID.TID 0000.0001) %MON seaice_hsnow_min             =   0.0000000000000E+00
(PID.TID 0000.0001) %MON seaice_hsnow_mean            =   9.9017795700779E-04
(PID.TID 0000.0001) %MON seaice_hsnow_sd              =   1.4036563780053E-02
(PID.TID 0000.0001) %MON seaice_hsnow_del2            =   4.0957358362775E-04
(PID.TID 0000.0001) // =======================================================
(PID.TID 0000.0001) // End MONITOR SEAICE statistics
(PID.TID 0000.0001) // =======================================================
(PID.TID 0000.0001) // =======================================================
(PID.TID 0000.0001) // Begin MONITOR ptracer field statistics
(PID.TID 0000.0001) // =======================================================
(PID.TID 0000.0001) %MON trcstat_ptracer01_max        =   2.4827867640357E+03
(PID.TID 0000.0001) %MON trcstat_ptracer01_min        =  -8.1823841902604E-01
(PID.TID 0000.0001) %MON trcstat_ptracer01_mean       =   2.0930836194768E+03
(PID.TID 0000.0001) %MON trcstat_ptracer01_sd         =   6.9246857401151E+02
(PID.TID 0000.0001) %MON trcstat_ptracer01_del2       =   4.3993775307920E+00
(PID.TID 0000.0001) %MON trcstat_ptracer02_max        =   4.9806869380901E+01
(PID.TID 0000.0001) %MON trcstat_ptracer02_min        =  -4.7110153798270E+00
(PID.TID 0000.0001) %MON trcstat_ptracer02_mean       =   2.8998123425919E+01
(PID.TID 0000.0001) %MON trcstat_ptracer02_sd         =   1.2490526756952E+01
(PID.TID 0000.0001) %MON trcstat_ptracer02_del2       =   6.2412539893517E-02
(PID.TID 0000.0001) %MON trcstat_ptracer03_max        =   9.6606335158269E-01
(PID.TID 0000.0001) %MON trcstat_ptracer03_min        =  -6.2072945698695E-02
(PID.TID 0000.0001) %MON trcstat_ptracer03_mean       =   3.2340696291805E-03
(PID.TID 0000.0001) %MON trcstat_ptracer03_sd         =   2.2945854060715E-02
(PID.TID 0000.0001) %MON trcstat_ptracer03_del2       =   1.8819806762605E-04
(PID.TID 0000.0001) %MON trcstat_ptracer04_max        =   1.9553724694815E-01
(PID.TID 0000.0001) %MON trcstat_ptracer04_min        =  -4.1543572601640E-03
(PID.TID 0000.0001) %MON trcstat_ptracer04_mean       =   3.4003825282094E-04
(PID.TID 0000.0001) %MON trcstat_ptracer04_sd         =   2.8084603326124E-03
(PID.TID 0000.0001) %MON trcstat_ptracer04_del2       =   2.5210966930418E-05
(PID.TID 0000.0001) %MON trcstat_ptracer05_max        =   3.5611980872484E+00
(PID.TID 0000.0001) %MON trcstat_ptracer05_min        =  -3.9332278634876E-01
(PID.TID 0000.0001) %MON trcstat_ptracer05_mean       =   2.0337883990740E+00
(PID.TID 0000.0001) %MON trcstat_ptracer05_sd         =   8.8527232153496E-01
(PID.TID 0000.0001) %MON trcstat_ptracer05_del2       =   4.3546369844857E-03
(PID.TID 0000.0001) %MON trcstat_ptracer06_max        =   1.0529093301053E-03
(PID.TID 0000.0001) %MON trcstat_ptracer06_min        =  -1.0705961620147E-04
(PID.TID 0000.0001) %MON trcstat_ptracer06_mean       =   4.8884949278532E-04
(PID.TID 0000.0001) %MON trcstat_ptracer06_sd         =   1.9300713140153E-04
(PID.TID 0000.0001) %MON trcstat_ptracer06_del2       =   1.2610008848101E-06
(PID.TID 0000.0001) %MON trcstat_ptracer07_max        =   2.2759843282225E+02
(PID.TID 0000.0001) %MON trcstat_ptracer07_min        =  -8.7250321546254E+00
(PID.TID 0000.0001) %MON trcstat_ptracer07_mean       =   8.4966357388987E+01
(PID.TID 0000.0001) %MON trcstat_ptracer07_sd         =   5.5746539410632E+01
(PID.TID 0000.0001) %MON trcstat_ptracer07_del2       =   2.2096090124165E-01
(PID.TID 0000.0001) %MON trcstat_ptracer08_max        =   7.3317617071660E+01
(PID.TID 0000.0001) %MON trcstat_ptracer08_min        =  -3.8484360606562E+00
(PID.TID 0000.0001) %MON trcstat_ptracer08_mean       =   4.5141547342059E-01
(PID.TID 0000.0001) %MON trcstat_ptracer08_sd         =   3.1044531781409E+00
(PID.TID 0000.0001) %MON trcstat_ptracer08_del2       =   1.5973409267279E-02
(PID.TID 0000.0001) %MON trcstat_ptracer09_max        =   5.9762473965041E+00
(PID.TID 0000.0001) %MON trcstat_ptracer09_min        =  -2.8333132172350E-01
(PID.TID 0000.0001) %MON trcstat_ptracer09_mean       =   2.9610294523382E-02
(PID.TID 0000.0001) %MON trcstat_ptracer09_sd         =   2.3854822737412E-01
(PID.TID 0000.0001) %MON trcstat_ptracer09_del2       =   1.4184229331261E-03
(PID.TID 0000.0001) %MON trcstat_ptracer10_max        =   3.7351546228151E-01
(PID.TID 0000.0001) %MON trcstat_ptracer10_min        =  -1.7708207607719E-02
(PID.TID 0000.0001) %MON trcstat_ptracer10_mean       =   1.8506434077114E-03
(PID.TID 0000.0001) %MON trcstat_ptracer10_sd         =   1.4909264210882E-02
(PID.TID 0000.0001) %MON trcstat_ptracer10_del2       =   8.8651433320385E-05
(PID.TID 0000.0001) %MON trcstat_ptracer11_max        =   3.7351546228223E-04
(PID.TID 0000.0001) %MON trcstat_ptracer11_min        =  -1.7708208174583E-05
(PID.TID 0000.0001) %MON trcstat_ptracer11_mean       =   1.8506434057614E-06
(PID.TID 0000.0001) %MON trcstat_ptracer11_sd         =   1.4909264193394E-05
(PID.TID 0000.0001) %MON trcstat_ptracer11_del2       =   8.8651433127054E-08
(PID.TID 0000.0001) %MON trcstat_ptracer12_max        =   4.5921915477631E+01
(PID.TID 0000.0001) %MON trcstat_ptracer12_min        =  -6.0909227340630E-01
(PID.TID 0000.0001) %MON trcstat_ptracer12_mean       =   1.3612784563685E-01
(PID.TID 0000.0001) %MON trcstat_ptracer12_sd         =   2.5059369558222E-01
(PID.TID 0000.0001) %MON trcstat_ptracer12_del2       =   2.3199551587338E-03
(PID.TID 0000.0001) %MON trcstat_ptracer13_max        =   3.5585660535133E+00
(PID.TID 0000.0001) %MON trcstat_ptracer13_min        =  -7.7483717533815E-02
(PID.TID 0000.0001) %MON trcstat_ptracer13_mean       =   8.5921973335742E-03
(PID.TID 0000.0001) %MON trcstat_ptracer13_sd         =   2.3459944629614E-02
(PID.TID 0000.0001) %MON trcstat_ptracer13_del2       =   2.0809846081091E-04
(PID.TID 0000.0001) %MON trcstat_ptracer14_max        =   2.2241037834458E-01
(PID.TID 0000.0001) %MON trcstat_ptracer14_min        =  -4.8427323458634E-03
(PID.TID 0000.0001) %MON trcstat_ptracer14_mean       =   5.3701233334819E-04
(PID.TID 0000.0001) %MON trcstat_ptracer14_sd         =   1.4662465393509E-03
(PID.TID 0000.0001) %MON trcstat_ptracer14_del2       =   1.3006153800680E-05
(PID.TID 0000.0001) %MON trcstat_ptracer15_max        =   2.2241038504978E-04
(PID.TID 0000.0001) %MON trcstat_ptracer15_min        =  -4.8427322839209E-06
(PID.TID 0000.0001) %MON trcstat_ptracer15_mean       =   5.3701233325025E-07
(PID.TID 0000.0001) %MON trcstat_ptracer15_sd         =   1.4662465419149E-06
(PID.TID 0000.0001) %MON trcstat_ptracer15_del2       =   1.3006153848269E-08
(PID.TID 0000.0001) %MON trcstat_ptracer16_max        =   9.7772769142953E+00
(PID.TID 0000.0001) %MON trcstat_ptracer16_min        =  -2.8452754353270E-01
(PID.TID 0000.0001) %MON trcstat_ptracer16_mean       =   7.1250958374414E-02
(PID.TID 0000.0001) %MON trcstat_ptracer16_sd         =   1.6080618017594E-01
(PID.TID 0000.0001) %MON trcstat_ptracer16_del2       =   1.3553921242725E-03
(PID.TID 0000.0001) %MON trcstat_ptracer17_max        =   7.5952499475962E+00
(PID.TID 0000.0001) %MON trcstat_ptracer17_min        =  -3.3301094427523E-02
(PID.TID 0000.0001) %MON trcstat_ptracer17_mean       =   1.4223072337247E-02
(PID.TID 0000.0001) %MON trcstat_ptracer17_sd         =   3.2607057727821E-02
(PID.TID 0000.0001) %MON trcstat_ptracer17_del2       =   3.2931626709224E-04
(PID.TID 0000.0001) %MON trcstat_ptracer18_max        =   2.5634125502588E+03
(PID.TID 0000.0001) %MON trcstat_ptracer18_min        =  -8.5897998402582E-01
(PID.TID 0000.0001) %MON trcstat_ptracer18_mean       =   2.1897936350378E+03
(PID.TID 0000.0001) %MON trcstat_ptracer18_sd         =   7.2175735812315E+02
(PID.TID 0000.0001) %MON trcstat_ptracer18_del2       =   4.6120002683589E+00
(PID.TID 0000.0001) %MON trcstat_ptracer19_max        =   4.0528071290427E+02
(PID.TID 0000.0001) %MON trcstat_ptracer19_min        =  -4.3320246080238E+01
(PID.TID 0000.0001) %MON trcstat_ptracer19_mean       =   1.5850153611321E+02
(PID.TID 0000.0001) %MON trcstat_ptracer19_sd         =   7.9789481885301E+01
(PID.TID 0000.0001) %MON trcstat_ptracer19_del2       =   3.9679484719806E-01
(PID.TID 0000.0001) %MON trcstat_ptracer20_max        =   9.7377042282808E+00
(PID.TID 0000.0001) %MON trcstat_ptracer20_min        =  -1.9585698345411E+00
(PID.TID 0000.0001) %MON trcstat_ptracer20_mean       =   7.5871305074083E-03
(PID.TID 0000.0001) %MON trcstat_ptracer20_sd         =   1.3728740298207E-01
(PID.TID 0000.0001) %MON trcstat_ptracer20_del2       =   1.8421107223960E-03
(PID.TID 0000.0001) %MON trcstat_ptracer21_max        =   8.1010205404974E+00
(PID.TID 0000.0001) %MON trcstat_ptracer21_min        =  -1.7509458230027E+00
(PID.TID 0000.0001) %MON trcstat_ptracer21_mean       =   4.1788408106066E-03
(PID.TID 0000.0001) %MON trcstat_ptracer21_sd         =   7.0744748318306E-02
(PID.TID 0000.0001) %MON trcstat_ptracer21_del2       =   1.1214084080269E-03
(PID.TID 0000.0001) %MON trcstat_ptracer22_max        =   7.6779656934815E+00
(PID.TID 0000.0001) %MON trcstat_ptracer22_min        =  -1.5890014203675E+00
(PID.TID 0000.0001) %MON trcstat_ptracer22_mean       =   3.2073900391845E-03
(PID.TID 0000.0001) %MON trcstat_ptracer22_sd         =   6.2198844356956E-02
(PID.TID 0000.0001) %MON trcstat_ptracer22_del2       =   8.4924895570383E-04
(PID.TID 0000.0001) %MON trcstat_ptracer23_max        =   3.3430824567704E-02
(PID.TID 0000.0001) %MON trcstat_ptracer23_min        =  -6.1629911503332E-02
(PID.TID 0000.0001) %MON trcstat_ptracer23_mean       =  -3.6314255682191E-06
(PID.TID 0000.0001) %MON trcstat_ptracer23_sd         =   3.9534395423211E-04
(PID.TID 0000.0001) %MON trcstat_ptracer23_del2       =   5.2833080975982E-06
(PID.TID 0000.0001) %MON trcstat_ptracer24_max        =   2.5776530696409E+00
(PID.TID 0000.0001) %MON trcstat_ptracer24_min        =  -4.5873084718917E-01
(PID.TID 0000.0001) %MON trcstat_ptracer24_mean       =   6.6643532918742E-03
(PID.TID 0000.0001) %MON trcstat_ptracer24_sd         =   7.8201831293513E-02
(PID.TID 0000.0001) %MON trcstat_ptracer24_del2       =   5.1073069272752E-04
(PID.TID 0000.0001) %MON trcstat_ptracer25_max        =   2.6777289210602E+00
(PID.TID 0000.0001) %MON trcstat_ptracer25_min        =  -4.7134574801213E-01
(PID.TID 0000.0001) %MON trcstat_ptracer25_mean       =   2.0729947151535E-03
(PID.TID 0000.0001) %MON trcstat_ptracer25_sd         =   3.7806166068919E-02
(PID.TID 0000.0001) %MON trcstat_ptracer25_del2       =   4.1037891585770E-04
(PID.TID 0000.0001) %MON trcstat_ptracer26_max        =   7.2540198942605E+00
(PID.TID 0000.0001) %MON trcstat_ptracer26_min        =  -1.8788243535086E+00
(PID.TID 0000.0001) %MON trcstat_ptracer26_mean       =   5.6070843016650E-03
(PID.TID 0000.0001) %MON trcstat_ptracer26_sd         =   1.1290189851578E-01
(PID.TID 0000.0001) %MON trcstat_ptracer26_del2       =   1.2767026271314E-03
(PID.TID 0000.0001) %MON trcstat_ptracer27_max        =   7.4648409962273E+00
(PID.TID 0000.0001) %MON trcstat_ptracer27_min        =  -5.6547999439277E-01
(PID.TID 0000.0001) %MON trcstat_ptracer27_mean       =   2.7778036382329E-03
(PID.TID 0000.0001) %MON trcstat_ptracer27_sd         =   4.7080237566220E-02
(PID.TID 0000.0001) %MON trcstat_ptracer27_del2       =   7.8092617640218E-04
(PID.TID 0000.0001) %MON trcstat_ptracer28_max        =   1.4979824211573E+01
(PID.TID 0000.0001) %MON trcstat_ptracer28_min        =  -6.4850117280788E-01
(PID.TID 0000.0001) %MON trcstat_ptracer28_mean       =   1.8707697325899E-03
(PID.TID 0000.0001) %MON trcstat_ptracer28_sd         =   4.6420984596558E-02
(PID.TID 0000.0001) %MON trcstat_ptracer28_del2       =   1.1555205679165E-03
(PID.TID 0000.0001) %MON trcstat_ptracer29_max        =   9.5154952840661E-01
(PID.TID 0000.0001) %MON trcstat_ptracer29_min        =  -1.6442966055502E-01
(PID.TID 0000.0001) %MON trcstat_ptracer29_mean       =   3.5515844991173E-04
(PID.TID 0000.0001) %MON trcstat_ptracer29_sd         =   7.4450968336041E-03
(PID.TID 0000.0001) %MON trcstat_ptracer29_del2       =   1.1994124286921E-04
(PID.TID 0000.0001) %MON trcstat_ptracer30_max        =   2.4419685430326E-03
(PID.TID 0000.0001) %MON trcstat_ptracer30_min        =  -3.6781375886866E-03
(PID.TID 0000.0001) %MON trcstat_ptracer30_mean       =  -2.1245533915741E-07
(PID.TID 0000.0001) %MON trcstat_ptracer30_sd         =   2.5276693076855E-05
(PID.TID 0000.0001) %MON trcstat_ptracer30_del2       =   3.5957611200516E-07
(PID.TID 0000.0001) %MON trcstat_ptracer31_max        =   2.8800278149532E+02
(PID.TID 0000.0001) %MON trcstat_ptracer31_min        =  -1.3366222076356E-01
(PID.TID 0000.0001) %MON trcstat_ptracer31_mean       =   1.0175716974314E-01
(PID.TID 0000.0001) %MON trcstat_ptracer31_sd         =   3.5035911763392E+00
(PID.TID 0000.0001) %MON trcstat_ptracer31_del2       =   2.1659746854830E-02
(PID.TID 0000.0001) // =======================================================
(PID.TID 0000.0001) // End MONITOR ptracer field statistics
(PID.TID 0000.0001) // =======================================================
(PID.TID 0000.0001) // =======================================================
(PID.TID 0000.0001) // Begin MONITOR EXF statistics
(PID.TID 0000.0001) // =======================================================
(PID.TID 0000.0001) %MON exf_tsnumber                 =                     3
(PID.TID 0000.0001) %MON exf_time_sec                 =   3.6000000000000E+03
(PID.TID 0000.0001) %MON exf_ustress_max              =   1.3193106654023E-01
(PID.TID 0000.0001) %MON exf_ustress_min              =  -1.1244158361876E-01
(PID.TID 0000.0001) %MON exf_ustress_mean             =  -4.4188557815796E-03
(PID.TID 0000.0001) %MON exf_ustress_sd               =   4.0087106262319E-02
(PID.TID 0000.0001) %MON exf_ustress_del2             =   1.4488348458877E-04
(PID.TID 0000.0001) %MON exf_vstress_max              =   9.9484095985886E-02
(PID.TID 0000.0001) %MON exf_vstress_min              =  -1.0036752808359E-01
(PID.TID 0000.0001) %MON exf_vstress_mean             =  -3.5092591257219E-03
(PID.TID 0000.0001) %MON exf_vstress_sd               =   1.8012794990180E-02
(PID.TID 0000.0001) %MON exf_vstress_del2             =   9.7274854436481E-05
(PID.TID 0000.0001) %MON exf_hflux_max                =   4.1331798606123E+02
(PID.TID 0000.0001) %MON exf_hflux_min                =  -3.3213516440838E+02
(PID.TID 0000.0001) %MON exf_hflux_mean               =  -8.1845781474013E+01
(PID.TID 0000.0001) %MON exf_hflux_sd                 =   1.0067297036325E+02
(PID.TID 0000.0001) %MON exf_hflux_del2               =   5.7632335486145E-01
(PID.TID 0000.0001) %MON exf_sflux_max                =   8.5103045335181E-08
(PID.TID 0000.0001) %MON exf_sflux_min                =  -6.3544035827251E-07
(PID.TID 0000.0001) %MON exf_sflux_mean               =  -1.5664465644209E-08
(PID.TID 0000.0001) %MON exf_sflux_sd                 =   3.7495228031985E-08
(PID.TID 0000.0001) %MON exf_sflux_del2               =   3.1062586491263E-10
(PID.TID 0000.0001) %MON exf_uwind_max                =   9.5211109898450E+00
(PID.TID 0000.0001) %MON exf_uwind_min                =  -8.7607126620841E+00
(PID.TID 0000.0001) %MON exf_uwind_mean               =  -4.9441175921963E-01
(PID.TID 0000.0001) %MON exf_uwind_sd                 =   4.4176632061375E+00
(PID.TID 0000.0001) %MON exf_uwind_del2               =   1.2106215807745E-02
(PID.TID 0000.0001) %MON exf_vwind_max                =   8.7167595063713E+00
(PID.TID 0000.0001) %MON exf_vwind_min                =  -6.9970480275545E+00
(PID.TID 0000.0001) %MON exf_vwind_mean               =  -3.7897143711636E-01
(PID.TID 0000.0001) %MON exf_vwind_sd                 =   2.2077280283197E+00
(PID.TID 0000.0001) %MON exf_vwind_del2               =   9.5071224991907E-03
(PID.TID 0000.0001) %MON exf_wspeed_max               =   9.5367768927040E+00
(PID.TID 0000.0001) %MON exf_wspeed_min               =   5.0162693075106E-02
(PID.TID 0000.0001) %MON exf_wspeed_mean              =   4.4774130783446E+00
(PID.TID 0000.0001) %MON exf_wspeed_sd                =   2.1750047617335E+00
(PID.TID 0000.0001) %MON exf_wspeed_del2              =   2.0415282544173E-02
(PID.TID 0000.0001) %MON exf_atemp_max                =   3.0188435725097E+02
(PID.TID 0000.0001) %MON exf_atemp_min                =   2.4476706251032E+02
(PID.TID 0000.0001) %MON exf_atemp_mean               =   2.9041301401158E+02
(PID.TID 0000.0001) %MON exf_atemp_sd                 =   9.7907110780528E+00
(PID.TID 0000.0001) %MON exf_atemp_del2               =   3.1163102805018E-02
(PID.TID 0000.0001) %MON exf_aqh_max                  =   1.9837516075291E-02
(PID.TID 0000.0001) %MON exf_aqh_min                  =   3.5612773370972E-04
(PID.TID 0000.0001) %MON exf_aqh_mean                 =   1.1235028341406E-02
(PID.TID 0000.0001) %MON exf_aqh_sd                   =   5.1801801405127E-03
(PID.TID 0000.0001) %MON exf_aqh_del2                 =   1.8226177648178E-05
(PID.TID 0000.0001) %MON exf_lwflux_max               =   1.5497612761574E+02
(PID.TID 0000.0001) %MON exf_lwflux_min               =   4.3059729184984E+00
(PID.TID 0000.0001) %MON exf_lwflux_mean              =   4.1312788653187E+01
(PID.TID 0000.0001) %MON exf_lwflux_sd                =   1.3588297169399E+01
(PID.TID 0000.0001) %MON exf_lwflux_del2              =   1.1677724592682E-01
(PID.TID 0000.0001) %MON exf_evap_max                 =   8.5143548588289E-08
(PID.TID 0000.0001) %MON exf_evap_min                 =  -1.2826538891987E-08
(PID.TID 0000.0001) %MON exf_evap_mean                =   2.6033247122113E-08
(PID.TID 0000.0001) %MON exf_evap_sd                  =   1.7973407401876E-08
(PID.TID 0000.0001) %MON exf_evap_del2                =   1.3128348920431E-10
(PID.TID 0000.0001) %MON exf_precip_max               =   1.4861161521267E-07
(PID.TID 0000.0001) %MON exf_precip_min               =  -8.5430987550310E-09
(PID.TID 0000.0001) %MON exf_precip_mean              =   3.9996449907705E-08
(PID.TID 0000.0001) %MON exf_precip_sd                =   2.9091270562045E-08
(PID.TID 0000.0001) %MON exf_precip_del2              =   2.5062874389113E-10
(PID.TID 0000.0001) %MON exf_swflux_max               =   3.3130507741352E+01
(PID.TID 0000.0001) %MON exf_swflux_min               =  -3.5303259822976E+02
(PID.TID 0000.0001) %MON exf_swflux_mean              =  -1.9692392387961E+02
(PID.TID 0000.0001) %MON exf_swflux_sd                =   7.3602042971042E+01
(PID.TID 0000.0001) %MON exf_swflux_del2              =   4.2112441894298E-01
(PID.TID 0000.0001) %MON exf_swdown_max               =   3.8080491750030E+02
(PID.TID 0000.0001) %MON exf_swdown_min               =  -4.7329296773360E+01
(PID.TID 0000.0001) %MON exf_swdown_mean              =   2.1342902229041E+02
(PID.TID 0000.0001) %MON exf_swdown_sd                =   7.8889555185195E+01
(PID.TID 0000.0001) %MON exf_swdown_del2              =   4.5658122154878E-01
(PID.TID 0000.0001) %MON exf_lwdown_max               =   4.4360202196172E+02
(PID.TID 0000.0001) %MON exf_lwdown_min               =   1.5695647186670E+02
(PID.TID 0000.0001) %MON exf_lwdown_mean              =   3.6918900058682E+02
(PID.TID 0000.0001) %MON exf_lwdown_sd                =   5.1748179362488E+01
(PID.TID 0000.0001) %MON exf_lwdown_del2              =   6.4194278492763E-01
(PID.TID 0000.0001) %MON exf_runoff_max               =   5.5124010408145E-07
(PID.TID 0000.0001) %MON exf_runoff_min               =   0.0000000000000E+00
(PID.TID 0000.0001) %MON exf_runoff_mean              =   1.7012628586167E-09
(PID.TID 0000.0001) %MON exf_runoff_sd                =   1.1345887488079E-08
(PID.TID 0000.0001) %MON exf_runoff_del2              =   1.2560034341652E-10
(PID.TID 0000.0001) // =======================================================
(PID.TID 0000.0001) // End MONITOR EXF statistics
(PID.TID 0000.0001) // =======================================================
(PID.TID 0000.0001) // =======================================================
(PID.TID 0000.0001) // Begin MONITOR DARWIN statistics
(PID.TID 0000.0001) // =======================================================
(PID.TID 0000.0001) %MON darwin_tsnumber              =                     3
(PID.TID 0000.0001) %MON darwin_time_sec              =   3.6000000000000E+03
(PID.TID 0000.0001) %MON darwin_surfPAR_max           =   0.0000000000000E+00
(PID.TID 0000.0001) %MON darwin_surfPAR_min           =   0.0000000000000E+00
(PID.TID 0000.0001) %MON darwin_surfPAR_mean          =   0.0000000000000E+00
(PID.TID 0000.0001) %MON darwin_surfPAR_sd            =   0.0000000000000E+00
(PID.TID 0000.0001) %MON darwin_surfPAR_del2          =   0.0000000000000E+00
(PID.TID 0000.0001) %MON darwin_inputFe_max           =   2.1146043020100E-09
(PID.TID 0000.0001) %MON darwin_inputFe_min           =   0.0000000000000E+00
(PID.TID 0000.0001) %MON darwin_inputFe_mean          =   2.0740174661264E-10
(PID.TID 0000.0001) %MON darwin_inputFe_sd            =   2.3903150008530E-10
(PID.TID 0000.0001) %MON darwin_inputFe_del2          =   9.6958357839482E-13
(PID.TID 0000.0001) %MON darwin_iceFrac_max           =   9.5000000000000E-01
(PID.TID 0000.0001) %MON darwin_iceFrac_min           =   0.0000000000000E+00
(PID.TID 0000.0001) %MON darwin_iceFrac_mean          =   4.7128752226187E-03
(PID.TID 0000.0001) %MON darwin_iceFrac_sd            =   6.6632638013200E-02
(PID.TID 0000.0001) %MON darwin_iceFrac_del2          =   1.9390510988410E-03
(PID.TID 0000.0001) %MON darwin_windSpeed_max         =   9.5367768927040E+00
(PID.TID 0000.0001) %MON darwin_windSpeed_min         =   5.0162693075106E-02
(PID.TID 0000.0001) %MON darwin_windSpeed_mean        =   4.4774130783446E+00
(PID.TID 0000.0001) %MON darwin_windSpeed_sd          =   2.1750047617335E+00
(PID.TID 0000.0001) %MON darwin_windSpeed_del2        =   2.0415282544173E-02
(PID.TID 0000.0001) %MON darwin_atmospCO2_max         =   3.7074113198111E-04
(PID.TID 0000.0001) %MON darwin_atmospCO2_min         =   3.6819486719299E-04
(PID.TID 0000.0001) %MON darwin_atmospCO2_mean        =   3.6882214070343E-04
(PID.TID 0000.0001) %MON darwin_atmospCO2_sd          =   5.2332670990067E-07
(PID.TID 0000.0001) %MON darwin_atmospCO2_del2        =   9.8107506326777E-11
(PID.TID 0000.0001) // =======================================================
(PID.TID 0000.0001) // End MONITOR DARWIN statistics
(PID.TID 0000.0001) // =======================================================
 cg2d: Sum(rhs),rhsMax =  -1.12782355018301E+00  1.10234367497598E+01
(PID.TID 0000.0001)      cg2d_init_res =   3.32228595249994E+00
(PID.TID 0000.0001)      cg2d_iters(min,last) =      -1      15
(PID.TID 0000.0001)      cg2d_last_res =   9.47135145729384E-06
(PID.TID 0000.0001) // =======================================================
(PID.TID 0000.0001) // Begin MONITOR dynamic field statistics
(PID.TID 0000.0001) // =======================================================
(PID.TID 0000.0001) %MON time_tsnumber                =                     4
(PID.TID 0000.0001) %MON time_secondsf                =   4.8000000000000E+03
(PID.TID 0000.0001) %MON dynstat_eta_max              =   9.1452800408443E-01
(PID.TID 0000.0001) %MON dynstat_eta_min              =  -2.3652384436320E+00
(PID.TID 0000.0001) %MON dynstat_eta_mean             =   6.9863139415598E-05
(PID.TID 0000.0001) %MON dynstat_eta_sd               =   5.5173557394212E-01
(PID.TID 0000.0001) %MON dynstat_eta_del2             =   2.1056405820839E-03
(PID.TID 0000.0001) %MON dynstat_uvel_max             =   1.9814867884591E-01
(PID.TID 0000.0001) %MON dynstat_uvel_min             =  -2.3813467898307E-01
(PID.TID 0000.0001) %MON dynstat_uvel_mean            =   1.7989461686395E-03
(PID.TID 0000.0001) %MON dynstat_uvel_sd              =   1.2959607651424E-02
(PID.TID 0000.0001) %MON dynstat_uvel_del2            =   5.3792729832288E-05
(PID.TID 0000.0001) %MON dynstat_vvel_max             =   1.4574107760852E-01
(PID.TID 0000.0001) %MON dynstat_vvel_min             =  -2.1216978198426E-01
(PID.TID 0000.0001) %MON dynstat_vvel_mean            =  -1.1626376347676E-03
(PID.TID 0000.0001) %MON dynstat_vvel_sd              =   8.7231434908528E-03
(PID.TID 0000.0001) %MON dynstat_vvel_del2            =   4.5834753677274E-05
(PID.TID 0000.0001) %MON dynstat_wvel_max             =   2.9074035419273E-04
(PID.TID 0000.0001) %MON dynstat_wvel_min             =  -3.0822323843961E-04
(PID.TID 0000.0001) %MON dynstat_wvel_mean            =   1.4260213129334E-08
(PID.TID 0000.0001) %MON dynstat_wvel_sd              =   1.1515376386823E-05
(PID.TID 0000.0001) %MON dynstat_wvel_del2            =   9.3934586306086E-08
(PID.TID 0000.0001) %MON dynstat_theta_max            =   3.0244616768944E+01
(PID.TID 0000.0001) %MON dynstat_theta_min            =  -3.4673602127010E+00
(PID.TID 0000.0001) %MON dynstat_theta_mean           =   3.8023350313633E+00
(PID.TID 0000.0001) %MON dynstat_theta_sd             =   4.5124936656017E+00
(PID.TID 0000.0001) %MON dynstat_theta_del2           =   2.5971097577451E-03
(PID.TID 0000.0001) %MON dynstat_salt_max             =   3.7556766408608E+01
(PID.TID 0000.0001) %MON dynstat_salt_min             =   3.1484615202817E+01
(PID.TID 0000.0001) %MON dynstat_salt_mean            =   3.4614649171724E+01
(PID.TID 0000.0001) %MON dynstat_salt_sd              =   3.1407794000962E-01
(PID.TID 0000.0001) %MON dynstat_salt_del2            =   4.0522578981953E-04
(PID.TID 0000.0001) %MON dynstat_sst_max              =   3.0244616768944E+01
(PID.TID 0000.0001) %MON dynstat_sst_min              =  -1.9427527918799E+00
(PID.TID 0000.0001) %MON dynstat_sst_mean             =   1.8346563756681E+01
(PID.TID 0000.0001) %MON dynstat_sst_sd               =   9.2008785105957E+00
(PID.TID 0000.0001) %MON dynstat_sst_del2             =   1.4233143890621E-02
(PID.TID 0000.0001) %MON dynstat_sss_max              =   3.7556766408608E+01
(PID.TID 0000.0001) %MON dynstat_sss_min              =   3.1484615202817E+01
(PID.TID 0000.0001) %MON dynstat_sss_mean             =   3.4855870866203E+01
(PID.TID 0000.0001) %MON dynstat_sss_sd               =   9.5404401392128E-01
(PID.TID 0000.0001) %MON dynstat_sss_del2             =   3.0372454216771E-03
(PID.TID 0000.0001) %MON forcing_qnet_max             =   3.4775474025236E+02
(PID.TID 0000.0001) %MON forcing_qnet_min             =  -3.3213516440838E+02
(PID.TID 0000.0001) %MON forcing_qnet_mean            =  -8.2604587726690E+01
(PID.TID 0000.0001) %MON forcing_qnet_sd              =   9.8300597602819E+01
(PID.TID 0000.0001) %MON forcing_qnet_del2            =   6.0018302662813E-01
(PID.TID 0000.0001) %MON forcing_qsw_max              =   3.3130507741352E+01
(PID.TID 0000.0001) %MON forcing_qsw_min              =  -3.5303259822976E+02
(PID.TID 0000.0001) %MON forcing_qsw_mean             =  -1.9660841583998E+02
(PID.TID 0000.0001) %MON forcing_qsw_sd               =   7.3854206050767E+01
(PID.TID 0000.0001) %MON forcing_qsw_del2             =   3.3295693386347E-01
(PID.TID 0000.0001) %MON forcing_empmr_max            =   8.2705297572402E-04
(PID.TID 0000.0001) %MON forcing_empmr_min            =  -6.3544035827251E-04
(PID.TID 0000.0001) %MON forcing_empmr_mean           =  -1.4976647764360E-05
(PID.TID 0000.0001) %MON forcing_empmr_sd             =   4.3806493287072E-05
(PID.TID 0000.0001) %MON forcing_empmr_del2           =   8.8731017236801E-07
(PID.TID 0000.0001) %MON forcing_fu_max               =   1.3085509862714E-01
(PID.TID 0000.0001) %MON forcing_fu_min               =  -1.1234104107146E-01
(PID.TID 0000.0001) %MON forcing_fu_mean              =  -4.3676869996700E-03
(PID.TID 0000.0001) %MON forcing_fu_sd                =   4.0503324777813E-02
(PID.TID 0000.0001) %MON forcing_fu_del2              =   1.4303712117266E-04
(PID.TID 0000.0001) %MON forcing_fv_max               =   9.4392851950288E-02
(PID.TID 0000.0001) %MON forcing_fv_min               =  -9.4687049110865E-02
(PID.TID 0000.0001) %MON forcing_fv_mean              =  -3.4029865521912E-03
(PID.TID 0000.0001) %MON forcing_fv_sd                =   1.7682834537664E-02
(PID.TID 0000.0001) %MON forcing_fv_del2              =   8.4270930193136E-05
(PID.TID 0000.0001) %MON trAdv_CFL_u_max              =   2.9266237799182E-03
(PID.TID 0000.0001) %MON trAdv_CFL_v_max              =   8.1371953658089E-04
(PID.TID 0000.0001) %MON trAdv_CFL_w_max              =   2.3824174940565E-03
(PID.TID 0000.0001) %MON advcfl_uvel_max              =   2.9134349205006E-03
(PID.TID 0000.0001) %MON advcfl_vvel_max              =   8.1424564632776E-04
(PID.TID 0000.0001) %MON advcfl_wvel_max              =   1.9802478301762E-03
(PID.TID 0000.0001) %MON advcfl_W_hf_max              =   2.3824174940565E-03
(PID.TID 0000.0001) %MON pe_b_mean                    =   3.7554289057717E-04
(PID.TID 0000.0001) %MON ke_max                       =   3.0117837865793E-02
(PID.TID 0000.0001) %MON ke_mean                      =   1.1502477803431E-04
(PID.TID 0000.0001) %MON ke_vol                       =   1.2571477031656E+18
(PID.TID 0000.0001) %MON vort_r_min                   =  -1.0640222128490E-06
(PID.TID 0000.0001) %MON vort_r_max                   =   1.2221714704790E-06
(PID.TID 0000.0001) %MON vort_a_mean                  =  -2.4002453570027E-05
(PID.TID 0000.0001) %MON vort_a_sd                    =   7.3138171687546E-05
(PID.TID 0000.0001) %MON vort_p_mean                  =  -2.8585748314369E-05
(PID.TID 0000.0001) %MON vort_p_sd                    =   1.1454433083531E-04
(PID.TID 0000.0001) %MON surfExpan_theta_mean         =  -5.2874780471223E-06
(PID.TID 0000.0001) %MON surfExpan_salt_mean          =  -1.6580860247104E-07
(PID.TID 0000.0001) // =======================================================
(PID.TID 0000.0001) // End MONITOR dynamic field statistics
(PID.TID 0000.0001) // =======================================================
(PID.TID 0000.0001) // =======================================================
(PID.TID 0000.0001) // Begin MONITOR SEAICE statistics
(PID.TID 0000.0001) // =======================================================
(PID.TID 0000.0001) %MON seaice_tsnumber              =                     4
(PID.TID 0000.0001) %MON seaice_time_sec              =   4.8000000000000E+03
(PID.TID 0000.0001) %MON seaice_uice_max              =   2.8044139116039E-01
(PID.TID 0000.0001) %MON seaice_uice_min              =  -3.5080282146115E-01
(PID.TID 0000.0001) %MON seaice_uice_mean             =  -4.4195345475967E-03
(PID.TID 0000.0001) %MON seaice_uice_sd               =   9.9711533367425E-02
(PID.TID 0000.0001) %MON seaice_uice_del2             =   5.3357998211469E-04
(PID.TID 0000.0001) %MON seaice_vice_max              =   1.4138497473717E-01
(PID.TID 0000.0001) %MON seaice_vice_min              =  -2.6562208758060E-01
(PID.TID 0000.0001) %MON seaice_vice_mean             =  -8.0109727315539E-03
(PID.TID 0000.0001) %MON seaice_vice_sd               =   4.0188930516413E-02
(PID.TID 0000.0001) %MON seaice_vice_del2             =   3.5020841266677E-04
(PID.TID 0000.0001) %MON seaice_area_max              =   9.5000000000000E-01
(PID.TID 0000.0001) %MON seaice_area_min              =   0.0000000000000E+00
(PID.TID 0000.0001) %MON seaice_area_mean             =   4.7177112442414E-03
(PID.TID 0000.0001) %MON seaice_area_sd               =   6.6617885191818E-02
(PID.TID 0000.0001) %MON seaice_area_del2             =   1.9360750991699E-03
(PID.TID 0000.0001) %MON seaice_heff_max              =   1.0013743433244E+00
(PID.TID 0000.0001) %MON seaice_heff_min              =   0.0000000000000E+00
(PID.TID 0000.0001) %MON seaice_heff_mean             =   4.9517311054393E-03
(PID.TID 0000.0001) %MON seaice_heff_sd               =   7.0118819425668E-02
(PID.TID 0000.0001) %MON seaice_heff_del2             =   2.0436238053197E-03
(PID.TID 0000.0001) %MON seaice_hsnow_max             =   2.0049399480903E-01
(PID.TID 0000.0001) %MON seaice_hsnow_min             =   0.0000000000000E+00
(PID.TID 0000.0001) %MON seaice_hsnow_mean            =   9.9040618453670E-04
(PID.TID 0000.0001) %MON seaice_hsnow_sd              =   1.4037034424744E-02
(PID.TID 0000.0001) %MON seaice_hsnow_del2            =   4.0946923583612E-04
(PID.TID 0000.0001) // =======================================================
(PID.TID 0000.0001) // End MONITOR SEAICE statistics
(PID.TID 0000.0001) // =======================================================
(PID.TID 0000.0001) // =======================================================
(PID.TID 0000.0001) // Begin MONITOR ptracer field statistics
(PID.TID 0000.0001) // =======================================================
(PID.TID 0000.0001) %MON trcstat_ptracer01_max        =   2.4826436300295E+03
(PID.TID 0000.0001) %MON trcstat_ptracer01_min        =  -1.0903641281244E+00
(PID.TID 0000.0001) %MON trcstat_ptracer01_mean       =   2.0930836883078E+03
(PID.TID 0000.0001) %MON trcstat_ptracer01_sd         =   6.9244485979007E+02
(PID.TID 0000.0001) %MON trcstat_ptracer01_del2       =   4.3987466238035E+00
(PID.TID 0000.0001) %MON trcstat_ptracer02_max        =   4.9806511084921E+01
(PID.TID 0000.0001) %MON trcstat_ptracer02_min        =  -4.7106920229136E+00
(PID.TID 0000.0001) %MON trcstat_ptracer02_mean       =   2.8998117609172E+01
(PID.TID 0000.0001) %MON trcstat_ptracer02_sd         =   1.2490256420321E+01
(PID.TID 0000.0001) %MON trcstat_ptracer02_del2       =   6.2404690987959E-02
(PID.TID 0000.0001) %MON trcstat_ptracer03_max        =   9.6593688209319E-01
(PID.TID 0000.0001) %MON trcstat_ptracer03_min        =  -6.2008629605417E-02
(PID.TID 0000.0001) %MON trcstat_ptracer03_mean       =   3.2329078856435E-03
(PID.TID 0000.0001) %MON trcstat_ptracer03_sd         =   2.2930705455322E-02
(PID.TID 0000.0001) %MON trcstat_ptracer03_del2       =   1.8806856422196E-04
(PID.TID 0000.0001) %MON trcstat_ptracer04_max        =   1.9580959141924E-01
(PID.TID 0000.0001) %MON trcstat_ptracer04_min        =  -4.1149796695904E-03
(PID.TID 0000.0001) %MON trcstat_ptracer04_mean       =   3.4122743317047E-04
(PID.TID 0000.0001) %MON trcstat_ptracer04_sd         =   2.8145823215968E-03
(PID.TID 0000.0001) %MON trcstat_ptracer04_del2       =   2.5255150771210E-05
(PID.TID 0000.0001) %MON trcstat_ptracer05_max        =   3.5611950844580E+00
(PID.TID 0000.0001) %MON trcstat_ptracer05_min        =  -3.9321244692600E-01
(PID.TID 0000.0001) %MON trcstat_ptracer05_mean       =   2.0337880386626E+00
(PID.TID 0000.0001) %MON trcstat_ptracer05_sd         =   8.8525411631123E-01
(PID.TID 0000.0001) %MON trcstat_ptracer05_del2       =   4.3540866491241E-03
(PID.TID 0000.0001) %MON trcstat_ptracer06_max        =   1.0528968996606E-03
(PID.TID 0000.0001) %MON trcstat_ptracer06_min        =  -1.0698707542641E-04
(PID.TID 0000.0001) %MON trcstat_ptracer06_mean       =   4.8884915249652E-04
(PID.TID 0000.0001) %MON trcstat_ptracer06_sd         =   1.9299782232245E-04
(PID.TID 0000.0001) %MON trcstat_ptracer06_del2       =   1.2607535324342E-06
(PID.TID 0000.0001) %MON trcstat_ptracer07_max        =   2.2759419651781E+02
(PID.TID 0000.0001) %MON trcstat_ptracer07_min        =  -8.7231124043741E+00
(PID.TID 0000.0001) %MON trcstat_ptracer07_mean       =   8.4966352321864E+01
(PID.TID 0000.0001) %MON trcstat_ptracer07_sd         =   5.5745778033994E+01
(PID.TID 0000.0001) %MON trcstat_ptracer07_del2       =   2.2093808069339E-01
(PID.TID 0000.0001) %MON trcstat_ptracer08_max        =   7.3317237079418E+01
(PID.TID 0000.0001) %MON trcstat_ptracer08_min        =  -3.8476329618576E+00
(PID.TID 0000.0001) %MON trcstat_ptracer08_mean       =   4.5141351145307E-01
(PID.TID 0000.0001) %MON trcstat_ptracer08_sd         =   3.1033738638680E+00
(PID.TID 0000.0001) %MON trcstat_ptracer08_del2       =   1.5960579340528E-02
(PID.TID 0000.0001) %MON trcstat_ptracer09_max        =   5.9759361784629E+00
(PID.TID 0000.0001) %MON trcstat_ptracer09_min        =  -2.8306733555881E-01
(PID.TID 0000.0001) %MON trcstat_ptracer09_mean       =   2.9610065468988E-02
(PID.TID 0000.0001) %MON trcstat_ptracer09_sd         =   2.3845207279733E-01
(PID.TID 0000.0001) %MON trcstat_ptracer09_del2       =   1.4171867772881E-03
(PID.TID 0000.0001) %MON trcstat_ptracer10_max        =   3.7349601115393E-01
(PID.TID 0000.0001) %MON trcstat_ptracer10_min        =  -1.7691708472425E-02
(PID.TID 0000.0001) %MON trcstat_ptracer10_mean       =   1.8506290918117E-03
(PID.TID 0000.0001) %MON trcstat_ptracer10_sd         =   1.4903254549833E-02
(PID.TID 0000.0001) %MON trcstat_ptracer10_del2       =   8.8574173580506E-05
(PID.TID 0000.0001) %MON trcstat_ptracer11_max        =   3.7349601115492E-04
(PID.TID 0000.0001) %MON trcstat_ptracer11_min        =  -1.7691709039086E-05
(PID.TID 0000.0001) %MON trcstat_ptracer11_mean       =   1.8506290898619E-06
(PID.TID 0000.0001) %MON trcstat_ptracer11_sd         =   1.4903254532301E-05
(PID.TID 0000.0001) %MON trcstat_ptracer11_del2       =   8.8574173383359E-08
(PID.TID 0000.0001) %MON trcstat_ptracer12_max        =   4.5825847988515E+01
(PID.TID 0000.0001) %MON trcstat_ptracer12_min        =  -6.0878118993243E-01
(PID.TID 0000.0001) %MON trcstat_ptracer12_mean       =   1.3612248479345E-01
(PID.TID 0000.0001) %MON trcstat_ptracer12_sd         =   2.5046116587138E-01
(PID.TID 0000.0001) %MON trcstat_ptracer12_del2       =   2.3163776342282E-03
(PID.TID 0000.0001) %MON trcstat_ptracer13_max        =   3.5509990929185E+00
(PID.TID 0000.0001) %MON trcstat_ptracer13_min        =  -7.7444577037911E-02
(PID.TID 0000.0001) %MON trcstat_ptracer13_mean       =   8.5917080695493E-03
(PID.TID 0000.0001) %MON trcstat_ptracer13_sd         =   2.3449280695427E-02
(PID.TID 0000.0001) %MON trcstat_ptracer13_del2       =   2.0779500009669E-04
(PID.TID 0000.0001) %MON trcstat_ptracer14_max        =   2.2193744330740E-01
(PID.TID 0000.0001) %MON trcstat_ptracer14_min        =  -4.8402860648694E-03
(PID.TID 0000.0001) %MON trcstat_ptracer14_mean       =   5.3698175434664E-04
(PID.TID 0000.0001) %MON trcstat_ptracer14_sd         =   1.4655800434642E-03
(PID.TID 0000.0001) %MON trcstat_ptracer14_del2       =   1.2987187506041E-05
(PID.TID 0000.0001) %MON trcstat_ptracer15_max        =   2.2193744999730E-04
(PID.TID 0000.0001) %MON trcstat_ptracer15_min        =  -4.8402860029059E-06
(PID.TID 0000.0001) %MON trcstat_ptracer15_mean       =   5.3698175424869E-07
(PID.TID 0000.0001) %MON trcstat_ptracer15_sd         =   1.4655800460151E-06
(PID.TID 0000.0001) %MON trcstat_ptracer15_del2       =   1.2987187553417E-08
(PID.TID 0000.0001) %MON trcstat_ptracer16_max        =   9.7568049421863E+00
(PID.TID 0000.0001) %MON trcstat_ptracer16_min        =  -2.8443146233811E-01
(PID.TID 0000.0001) %MON trcstat_ptracer16_mean       =   7.1248166275696E-02
(PID.TID 0000.0001) %MON trcstat_ptracer16_sd         =   1.6074761942739E-01
(PID.TID 0000.0001) %MON trcstat_ptracer16_del2       =   1.3541619157424E-03
(PID.TID 0000.0001) %MON trcstat_ptracer17_max        =   7.5721239205477E+00
(PID.TID 0000.0001) %MON trcstat_ptracer17_min        =  -3.3269766188182E-02
(PID.TID 0000.0001) %MON trcstat_ptracer17_mean       =   1.4221953973322E-02
(PID.TID 0000.0001) %MON trcstat_ptracer17_sd         =   3.2570134545116E-02
(PID.TID 0000.0001) %MON trcstat_ptracer17_del2       =   3.2861429762461E-04
(PID.TID 0000.0001) %MON trcstat_ptracer18_max        =   2.5633203863988E+03
(PID.TID 0000.0001) %MON trcstat_ptracer18_min        =  -1.1446547553668E+00
(PID.TID 0000.0001) %MON trcstat_ptracer18_mean       =   2.1897936373509E+03
(PID.TID 0000.0001) %MON trcstat_ptracer18_sd         =   7.2173267883397E+02
(PID.TID 0000.0001) %MON trcstat_ptracer18_del2       =   4.6113541480588E+00
(PID.TID 0000.0001) %MON trcstat_ptracer19_max        =   4.0523918361508E+02
(PID.TID 0000.0001) %MON trcstat_ptracer19_min        =  -4.3313265715923E+01
(PID.TID 0000.0001) %MON trcstat_ptracer19_mean       =   1.5850166323788E+02
(PID.TID 0000.0001) %MON trcstat_ptracer19_sd         =   7.9787530496516E+01
(PID.TID 0000.0001) %MON trcstat_ptracer19_del2       =   3.9671796822595E-01
(PID.TID 0000.0001) %MON trcstat_ptracer20_max        =   9.7345689793320E+00
(PID.TID 0000.0001) %MON trcstat_ptracer20_min        =  -1.9578515855115E+00
(PID.TID 0000.0001) %MON trcstat_ptracer20_mean       =   7.6055117458540E-03
(PID.TID 0000.0001) %MON trcstat_ptracer20_sd         =   1.3748720199171E-01
(PID.TID 0000.0001) %MON trcstat_ptracer20_del2       =   1.8437521682381E-03
(PID.TID 0000.0001) %MON trcstat_ptracer21_max        =   8.1003859664464E+00
(PID.TID 0000.0001) %MON trcstat_ptracer21_min        =  -1.7507545219929E+00
(PID.TID 0000.0001) %MON trcstat_ptracer21_mean       =   4.1900871468971E-03
(PID.TID 0000.0001) %MON trcstat_ptracer21_sd         =   7.0852045959212E-02
(PID.TID 0000.0001) %MON trcstat_ptracer21_del2       =   1.1226481071864E-03
(PID.TID 0000.0001) %MON trcstat_ptracer22_max        =   7.6957806785208E+00
(PID.TID 0000.0001) %MON trcstat_ptracer22_min        =  -1.5884396748729E+00
(PID.TID 0000.0001) %MON trcstat_ptracer22_mean       =   3.2141238834612E-03
(PID.TID 0000.0001) %MON trcstat_ptracer22_sd         =   6.2307872063149E-02
(PID.TID 0000.0001) %MON trcstat_ptracer22_del2       =   8.5073043102212E-04
(PID.TID 0000.0001) %MON trcstat_ptracer23_max        =   3.3374159384628E-02
(PID.TID 0000.0001) %MON trcstat_ptracer23_min        =  -6.1620626591331E-02
(PID.TID 0000.0001) %MON trcstat_ptracer23_mean       =  -3.6323327568538E-06
(PID.TID 0000.0001) %MON trcstat_ptracer23_sd         =   3.9523842758249E-04
(PID.TID 0000.0001) %MON trcstat_ptracer23_del2       =   5.2791474381037E-06
(PID.TID 0000.0001) %MON trcstat_ptracer24_max        =   2.5804977926385E+00
(PID.TID 0000.0001) %MON trcstat_ptracer24_min        =  -4.5864058624119E-01
(PID.TID 0000.0001) %MON trcstat_ptracer24_mean       =   6.6735005392783E-03
(PID.TID 0000.0001) %MON trcstat_ptracer24_sd         =   7.8301820222656E-02
(PID.TID 0000.0001) %MON trcstat_ptracer24_del2       =   5.1123604976232E-04
(PID.TID 0000.0001) %MON trcstat_ptracer25_max        =   2.6768547512867E+00
(PID.TID 0000.0001) %MON trcstat_ptracer25_min        =  -4.7121428759539E-01
(PID.TID 0000.0001) %MON trcstat_ptracer25_mean       =   2.0729917096523E-03
(PID.TID 0000.0001) %MON trcstat_ptracer25_sd         =   3.7795300706417E-02
(PID.TID 0000.0001) %MON trcstat_ptracer25_del2       =   4.1004552409451E-04
(PID.TID 0000.0001) %MON trcstat_ptracer26_max        =   7.2552229953563E+00
(PID.TID 0000.0001) %MON trcstat_ptracer26_min        =  -1.8784880225352E+00
(PID.TID 0000.0001) %MON trcstat_ptracer26_mean       =   5.6074645977287E-03
(PID.TID 0000.0001) %MON trcstat_ptracer26_sd         =   1.1289210207331E-01
(PID.TID 0000.0001) %MON trcstat_ptracer26_del2       =   1.2763389905167E-03
(PID.TID 0000.0001) %MON trcstat_ptracer27_max        =   7.4469676096966E+00
(PID.TID 0000.0001) %MON trcstat_ptracer27_min        =  -5.6527188550482E-01
(PID.TID 0000.0001) %MON trcstat_ptracer27_mean       =   2.7805514992622E-03
(PID.TID 0000.0001) %MON trcstat_ptracer27_sd         =   4.7093307639203E-02
(PID.TID 0000.0001) %MON trcstat_ptracer27_del2       =   7.8046059550412E-04
(PID.TID 0000.0001) %MON trcstat_ptracer28_max        =   1.4924942980495E+01
(PID.TID 0000.0001) %MON trcstat_ptracer28_min        =  -6.4834118720383E-01
(PID.TID 0000.0001) %MON trcstat_ptracer28_mean       =   1.8716137878899E-03
(PID.TID 0000.0001) %MON trcstat_ptracer28_sd         =   4.6325301310186E-02
(PID.TID 0000.0001) %MON trcstat_ptracer28_del2       =   1.1521120780604E-03
(PID.TID 0000.0001) %MON trcstat_ptracer29_max        =   9.5482694965935E-01
(PID.TID 0000.0001) %MON trcstat_ptracer29_min        =  -1.6439436214613E-01
(PID.TID 0000.0001) %MON trcstat_ptracer29_mean       =   3.5565031249991E-04
(PID.TID 0000.0001) %MON trcstat_ptracer29_sd         =   7.4497923390719E-03
(PID.TID 0000.0001) %MON trcstat_ptracer29_del2       =   1.1991230407051E-04
(PID.TID 0000.0001) %MON trcstat_ptracer30_max        =   2.4407807052296E-03
(PID.TID 0000.0001) %MON trcstat_ptracer30_min        =  -3.6776623966201E-03
(PID.TID 0000.0001) %MON trcstat_ptracer30_mean       =  -2.1248535089860E-07
(PID.TID 0000.0001) %MON trcstat_ptracer30_sd         =   2.5271505630724E-05
(PID.TID 0000.0001) %MON trcstat_ptracer30_del2       =   3.5941120713197E-07
(PID.TID 0000.0001) %MON trcstat_ptracer31_max        =   2.8735622964904E+02
(PID.TID 0000.0001) %MON trcstat_ptracer31_min        =  -1.3357668654752E-01
(PID.TID 0000.0001) %MON trcstat_ptracer31_mean       =   1.0154334860680E-01
(PID.TID 0000.0001) %MON trcstat_ptracer31_sd         =   3.4960739251404E+00
(PID.TID 0000.0001) %MON trcstat_ptracer31_del2       =   2.1608139333044E-02
(PID.TID 0000.0001) // =======================================================
(PID.TID 0000.0001) // End MONITOR ptracer field statistics
(PID.TID 0000.0001) // =======================================================
(PID.TID 0000.0001) %CHECKPOINT         4 ckptA
(PID.TID 0000.0001)   Seconds in section "ALL                    [THE_MODEL_MAIN]":
(PID.TID 0000.0001)           User time:   14.096700051799417
(PID.TID 0000.0001)         System time:  0.47401200607419014
(PID.TID 0000.0001)     Wall clock time:   14.787508010864258
(PID.TID 0000.0001)          No. starts:           1
(PID.TID 0000.0001)           No. stops:           1
(PID.TID 0000.0001)   Seconds in section "INITIALISE_FIXED       [THE_MODEL_MAIN]":
(PID.TID 0000.0001)           User time:  0.41354198940098286
(PID.TID 0000.0001)         System time:   3.5216999240219593E-002
(PID.TID 0000.0001)     Wall clock time:  0.47644805908203125
(PID.TID 0000.0001)          No. starts:           1
(PID.TID 0000.0001)           No. stops:           1
(PID.TID 0000.0001)   Seconds in section "THE_MAIN_LOOP          [THE_MODEL_MAIN]":
(PID.TID 0000.0001)           User time:   13.683123201131821
(PID.TID 0000.0001)         System time:  0.43879000470042229
(PID.TID 0000.0001)     Wall clock time:   14.311028957366943
(PID.TID 0000.0001)          No. starts:           1
(PID.TID 0000.0001)           No. stops:           1
(PID.TID 0000.0001)   Seconds in section "INITIALISE_VARIA    [THE_MAIN_LOOP]":
(PID.TID 0000.0001)           User time:  0.67657196521759033
(PID.TID 0000.0001)         System time:  0.15778700634837151
(PID.TID 0000.0001)     Wall clock time:  0.89187693595886230
(PID.TID 0000.0001)          No. starts:           1
(PID.TID 0000.0001)           No. stops:           1
(PID.TID 0000.0001)   Seconds in section "MAIN LOOP           [THE_MAIN_LOOP]":
(PID.TID 0000.0001)           User time:   13.006539344787598
(PID.TID 0000.0001)         System time:  0.28100100159645081
(PID.TID 0000.0001)     Wall clock time:   13.419140100479126
(PID.TID 0000.0001)          No. starts:           1
(PID.TID 0000.0001)           No. stops:           1
(PID.TID 0000.0001)   Seconds in section "MAIN_DO_LOOP        [THE_MAIN_LOOP]":
(PID.TID 0000.0001)           User time:   13.006521105766296
(PID.TID 0000.0001)         System time:  0.28099900484085083
(PID.TID 0000.0001)     Wall clock time:   13.419121026992798
(PID.TID 0000.0001)          No. starts:           4
(PID.TID 0000.0001)           No. stops:           4
(PID.TID 0000.0001)   Seconds in section "FORWARD_STEP        [MAIN_DO_LOOP]":
(PID.TID 0000.0001)           User time:   13.006490349769592
(PID.TID 0000.0001)         System time:  0.28099799156188965
(PID.TID 0000.0001)     Wall clock time:   13.419088840484619
(PID.TID 0000.0001)          No. starts:           4
(PID.TID 0000.0001)           No. stops:           4
(PID.TID 0000.0001)   Seconds in section "DO_STATEVARS_DIAGS  [FORWARD_STEP]":
(PID.TID 0000.0001)           User time:   3.9465427398681641E-002
(PID.TID 0000.0001)         System time:   3.9598345756530762E-004
(PID.TID 0000.0001)     Wall clock time:   3.9866924285888672E-002
(PID.TID 0000.0001)          No. starts:          12
(PID.TID 0000.0001)           No. stops:          12
(PID.TID 0000.0001)   Seconds in section "LOAD_FIELDS_DRIVER  [FORWARD_STEP]":
(PID.TID 0000.0001)           User time:   9.4540476799011230E-002
(PID.TID 0000.0001)         System time:   9.1690272092819214E-003
(PID.TID 0000.0001)     Wall clock time:  0.12462282180786133
(PID.TID 0000.0001)          No. starts:           4
(PID.TID 0000.0001)           No. stops:           4
(PID.TID 0000.0001)   Seconds in section "EXF_GETFORCING     [LOAD_FLDS_DRIVER]":
(PID.TID 0000.0001)           User time:   8.3211421966552734E-002
(PID.TID 0000.0001)         System time:   7.2120279073715210E-003
(PID.TID 0000.0001)     Wall clock time:  0.10785388946533203
(PID.TID 0000.0001)          No. starts:           4
(PID.TID 0000.0001)           No. stops:           4
(PID.TID 0000.0001)   Seconds in section "EXTERNAL_FLDS_LOAD [LOAD_FLDS_DRIVER]":
(PID.TID 0000.0001)           User time:   7.4899196624755859E-004
(PID.TID 0000.0001)         System time:   4.0084123611450195E-006
(PID.TID 0000.0001)     Wall clock time:   7.5387954711914062E-004
(PID.TID 0000.0001)          No. starts:           4
(PID.TID 0000.0001)           No. stops:           4
(PID.TID 0000.0001)   Seconds in section "DO_ATMOSPHERIC_PHYS [FORWARD_STEP]":
(PID.TID 0000.0001)           User time:   1.5497207641601562E-005
(PID.TID 0000.0001)         System time:   2.9802322387695312E-006
(PID.TID 0000.0001)     Wall clock time:   1.7642974853515625E-005
(PID.TID 0000.0001)          No. starts:           4
(PID.TID 0000.0001)           No. stops:           4
(PID.TID 0000.0001)   Seconds in section "DO_OCEANIC_PHYS     [FORWARD_STEP]":
(PID.TID 0000.0001)           User time:  0.72892737388610840
(PID.TID 0000.0001)         System time:   9.6289664506912231E-003
(PID.TID 0000.0001)     Wall clock time:  0.74031972885131836
(PID.TID 0000.0001)          No. starts:           4
(PID.TID 0000.0001)           No. stops:           4
(PID.TID 0000.0001)   Seconds in section "SEAICE_MODEL    [DO_OCEANIC_PHYS]":
(PID.TID 0000.0001)           User time:  0.31083488464355469
(PID.TID 0000.0001)         System time:   2.9429793357849121E-003
(PID.TID 0000.0001)     Wall clock time:  0.31443905830383301
(PID.TID 0000.0001)          No. starts:           4
(PID.TID 0000.0001)           No. stops:           4
(PID.TID 0000.0001)   Seconds in section "SEAICE_DYNSOLVER   [SEAICE_MODEL]":
(PID.TID 0000.0001)           User time:  0.27214419841766357
(PID.TID 0000.0001)         System time:   1.3110041618347168E-003
(PID.TID 0000.0001)     Wall clock time:  0.27409005165100098
(PID.TID 0000.0001)          No. starts:           4
(PID.TID 0000.0001)           No. stops:           4
(PID.TID 0000.0001)   Seconds in section "GGL90_CALC [DO_OCEANIC_PHYS]":
(PID.TID 0000.0001)           User time:  0.18511319160461426
(PID.TID 0000.0001)         System time:   4.7370344400405884E-003
(PID.TID 0000.0001)     Wall clock time:  0.19050431251525879
(PID.TID 0000.0001)          No. starts:           4
(PID.TID 0000.0001)           No. stops:           4
(PID.TID 0000.0001)   Seconds in section "GCHEM_CALC_TENDENCY [FORWARD_STEP]":
(PID.TID 0000.0001)           User time:   1.3589859008789062E-005
(PID.TID 0000.0001)         System time:   2.0116567611694336E-006
(PID.TID 0000.0001)     Wall clock time:   1.6212463378906250E-005
(PID.TID 0000.0001)          No. starts:           4
(PID.TID 0000.0001)           No. stops:           4
(PID.TID 0000.0001)   Seconds in section "DYNAMICS            [FORWARD_STEP]":
(PID.TID 0000.0001)           User time:  0.74271476268768311
(PID.TID 0000.0001)         System time:   7.7469646930694580E-003
(PID.TID 0000.0001)     Wall clock time:  0.75164771080017090
(PID.TID 0000.0001)          No. starts:           4
(PID.TID 0000.0001)           No. stops:           4
(PID.TID 0000.0001)   Seconds in section "UPDATE_R_STAR       [FORWARD_STEP]":
(PID.TID 0000.0001)           User time:   1.5851974487304688E-002
(PID.TID 0000.0001)         System time:   1.7017126083374023E-005
(PID.TID 0000.0001)     Wall clock time:   1.5899181365966797E-002
(PID.TID 0000.0001)          No. starts:           4
(PID.TID 0000.0001)           No. stops:           4
(PID.TID 0000.0001)   Seconds in section "UPDATE_CG2D         [FORWARD_STEP]":
(PID.TID 0000.0001)           User time:   9.4825029373168945E-003
(PID.TID 0000.0001)         System time:   3.2991170883178711E-005
(PID.TID 0000.0001)     Wall clock time:   9.5188617706298828E-003
(PID.TID 0000.0001)          No. starts:           4
(PID.TID 0000.0001)           No. stops:           4
(PID.TID 0000.0001)   Seconds in section "SOLVE_FOR_PRESSURE  [FORWARD_STEP]":
(PID.TID 0000.0001)           User time:   4.6662569046020508E-002
(PID.TID 0000.0001)         System time:   2.2903084754943848E-004
(PID.TID 0000.0001)     Wall clock time:   4.6953201293945312E-002
(PID.TID 0000.0001)          No. starts:           4
(PID.TID 0000.0001)           No. stops:           4
(PID.TID 0000.0001)   Seconds in section "MOM_CORRECTION_STEP [FORWARD_STEP]":
(PID.TID 0000.0001)           User time:   1.3767361640930176E-002
(PID.TID 0000.0001)         System time:   1.5102326869964600E-004
(PID.TID 0000.0001)     Wall clock time:   1.4004945755004883E-002
(PID.TID 0000.0001)          No. starts:           4
(PID.TID 0000.0001)           No. stops:           4
(PID.TID 0000.0001)   Seconds in section "INTEGR_CONTINUITY   [FORWARD_STEP]":
(PID.TID 0000.0001)           User time:   2.9200792312622070E-002
(PID.TID 0000.0001)         System time:   5.0976872444152832E-005
(PID.TID 0000.0001)     Wall clock time:   2.9292106628417969E-002
(PID.TID 0000.0001)          No. starts:           4
(PID.TID 0000.0001)           No. stops:           4
(PID.TID 0000.0001)   Seconds in section "CALC_R_STAR         [FORWARD_STEP]":
(PID.TID 0000.0001)           User time:   3.3415555953979492E-003
(PID.TID 0000.0001)         System time:   2.9012560844421387E-005
(PID.TID 0000.0001)     Wall clock time:   3.3731460571289062E-003
(PID.TID 0000.0001)          No. starts:           4
(PID.TID 0000.0001)           No. stops:           4
(PID.TID 0000.0001)   Seconds in section "BLOCKING_EXCHANGES  [FORWARD_STEP]":
(PID.TID 0000.0001)           User time:   8.7242603302001953E-002
(PID.TID 0000.0001)         System time:   1.3393163681030273E-004
(PID.TID 0000.0001)     Wall clock time:   8.7455272674560547E-002
(PID.TID 0000.0001)          No. starts:           8
(PID.TID 0000.0001)           No. stops:           8
(PID.TID 0000.0001)   Seconds in section "THERMODYNAMICS      [FORWARD_STEP]":
(PID.TID 0000.0001)           User time:   8.9963415861129761
(PID.TID 0000.0001)         System time:   2.3862987756729126E-002
(PID.TID 0000.0001)     Wall clock time:   9.0410680770874023
(PID.TID 0000.0001)          No. starts:           4
(PID.TID 0000.0001)           No. stops:           4
(PID.TID 0000.0001)   Seconds in section "TRC_CORRECTION_STEP [FORWARD_STEP]":
(PID.TID 0000.0001)           User time:   1.6927719116210938E-005
(PID.TID 0000.0001)         System time:   0.0000000000000000
(PID.TID 0000.0001)     Wall clock time:   1.5974044799804688E-005
(PID.TID 0000.0001)          No. starts:           4
(PID.TID 0000.0001)           No. stops:           4
(PID.TID 0000.0001)   Seconds in section "GCHEM_FORCING_SEP  [FORWARD_STEP]":
(PID.TID 0000.0001)           User time:   1.2094774246215820
(PID.TID 0000.0001)         System time:   1.7142012715339661E-002
(PID.TID 0000.0001)     Wall clock time:   1.2303264141082764
(PID.TID 0000.0001)          No. starts:           4
(PID.TID 0000.0001)           No. stops:           4
(PID.TID 0000.0001)   Seconds in section "DARWIN_FORCING [GCHEM_FORCING_SEP]":
(PID.TID 0000.0001)           User time:  0.97122859954833984
(PID.TID 0000.0001)         System time:   1.5943005681037903E-002
(PID.TID 0000.0001)     Wall clock time:  0.99021720886230469
(PID.TID 0000.0001)          No. starts:           4
(PID.TID 0000.0001)           No. stops:           4
(PID.TID 0000.0001)   Seconds in section "DARWIN_LIGHT [DARWIN_FORCING]":
(PID.TID 0000.0001)           User time:   3.2318830490112305E-002
(PID.TID 0000.0001)         System time:   5.7998299598693848E-004
(PID.TID 0000.0001)     Wall clock time:   3.3097028732299805E-002
(PID.TID 0000.0001)          No. starts:           4
(PID.TID 0000.0001)           No. stops:           4
(PID.TID 0000.0001)   Seconds in section "DARWIN_SURFFORCING [DARWIN_FORCING]":
(PID.TID 0000.0001)           User time:  0.14210724830627441
(PID.TID 0000.0001)         System time:   6.7797303199768066E-004
(PID.TID 0000.0001)     Wall clock time:  0.14327716827392578
(PID.TID 0000.0001)          No. starts:           4
(PID.TID 0000.0001)           No. stops:           4
(PID.TID 0000.0001)   Seconds in section "DARWIN_FE_CHEM [DARWIN_FORCING]":
(PID.TID 0000.0001)           User time:   3.4476280212402344E-002
(PID.TID 0000.0001)         System time:   9.4899535179138184E-004
(PID.TID 0000.0001)     Wall clock time:   3.5671949386596680E-002
(PID.TID 0000.0001)          No. starts:           8
(PID.TID 0000.0001)           No. stops:           8
(PID.TID 0000.0001)   Seconds in section "DARWIN_FE_DUST [DARWIN_FORCING]":
(PID.TID 0000.0001)           User time:   2.3388862609863281E-004
(PID.TID 0000.0001)         System time:   3.0100345611572266E-006
(PID.TID 0000.0001)     Wall clock time:   2.4390220642089844E-004
(PID.TID 0000.0001)          No. starts:           4
(PID.TID 0000.0001)           No. stops:           4
(PID.TID 0000.0001)   Seconds in section "DARWIN_FE_SCAV [DARWIN_FORCING]":
(PID.TID 0000.0001)           User time:   1.1520862579345703E-002
(PID.TID 0000.0001)         System time:   5.7995319366455078E-005
(PID.TID 0000.0001)     Wall clock time:   1.1636018753051758E-002
(PID.TID 0000.0001)          No. starts:           4
(PID.TID 0000.0001)           No. stops:           4
(PID.TID 0000.0001)   Seconds in section "DARWIN_FE_SED [DARWIN_FORCING]":
(PID.TID 0000.0001)           User time:   2.4998188018798828E-003
(PID.TID 0000.0001)         System time:   2.3698806762695312E-004
(PID.TID 0000.0001)     Wall clock time:   2.7360916137695312E-003
(PID.TID 0000.0001)          No. starts:           4
(PID.TID 0000.0001)           No. stops:           4
(PID.TID 0000.0001)   Seconds in section "DARWIN_PLANKTON [DARWIN_FORCING]":
(PID.TID 0000.0001)           User time:  0.44866943359375000
(PID.TID 0000.0001)         System time:   3.1599700450897217E-003
(PID.TID 0000.0001)     Wall clock time:  0.45293903350830078
(PID.TID 0000.0001)          No. starts:           4
(PID.TID 0000.0001)           No. stops:           4
(PID.TID 0000.0001)   Seconds in section "DARWIN_SINKING [DARWIN_FORCING]":
(PID.TID 0000.0001)           User time:  0.10701465606689453
(PID.TID 0000.0001)         System time:   1.0305643081665039E-004
(PID.TID 0000.0001)     Wall clock time:  0.10735821723937988
(PID.TID 0000.0001)          No. starts:           4
(PID.TID 0000.0001)           No. stops:           4
(PID.TID 0000.0001)   Seconds in section "DARWIN_STEP [DARWIN_FORCING]":
(PID.TID 0000.0001)           User time:  0.12511444091796875
(PID.TID 0000.0001)         System time:   2.2500753402709961E-004
(PID.TID 0000.0001)     Wall clock time:  0.12556529045104980
(PID.TID 0000.0001)          No. starts:           4
(PID.TID 0000.0001)           No. stops:           4
(PID.TID 0000.0001)   Seconds in section "DIAGS_FILL [DARWIN_FORCING]":
(PID.TID 0000.0001)           User time:   2.3618221282958984E-002
(PID.TID 0000.0001)         System time:   4.7302246093750000E-004
(PID.TID 0000.0001)     Wall clock time:   2.4245977401733398E-002
(PID.TID 0000.0001)          No. starts:           4
(PID.TID 0000.0001)           No. stops:           4
(PID.TID 0000.0001)   Seconds in section "MONITOR             [FORWARD_STEP]":
(PID.TID 0000.0001)           User time:  0.13805723190307617
(PID.TID 0000.0001)         System time:   9.0298056602478027E-004
(PID.TID 0000.0001)     Wall clock time:  0.14346575736999512
(PID.TID 0000.0001)          No. starts:           4
(PID.TID 0000.0001)           No. stops:           4
(PID.TID 0000.0001)   Seconds in section "DO_THE_MODEL_IO     [FORWARD_STEP]":
(PID.TID 0000.0001)           User time:  0.70187139511108398
(PID.TID 0000.0001)         System time:   9.6479028463363647E-002
(PID.TID 0000.0001)     Wall clock time:  0.83864593505859375
(PID.TID 0000.0001)          No. starts:           4
(PID.TID 0000.0001)           No. stops:           4
(PID.TID 0000.0001)   Seconds in section "PTRACERS_RESET      [FORWARD_STEP]":
(PID.TID 0000.0001)           User time:   1.8596649169921875E-005
(PID.TID 0000.0001)         System time:   3.0100345611572266E-006
(PID.TID 0000.0001)     Wall clock time:   1.9073486328125000E-005
(PID.TID 0000.0001)          No. starts:           4
(PID.TID 0000.0001)           No. stops:           4
(PID.TID 0000.0001)   Seconds in section "DO_WRITE_PICKUP     [FORWARD_STEP]":
(PID.TID 0000.0001)           User time:  0.14907264709472656
(PID.TID 0000.0001)         System time:  0.11491200327873230
(PID.TID 0000.0001)     Wall clock time:  0.30213904380798340
(PID.TID 0000.0001)          No. starts:           4
(PID.TID 0000.0001)           No. stops:           4
(PID.TID 0000.0001) // ======================================================
(PID.TID 0000.0001) // Tile <-> Tile communication statistics
(PID.TID 0000.0001) // ======================================================
(PID.TID 0000.0001) // o Tile number: 000001
(PID.TID 0000.0001) //         No. X exchanges =              0
(PID.TID 0000.0001) //            Max. X spins =              0
(PID.TID 0000.0001) //            Min. X spins =     1000000000
(PID.TID 0000.0001) //          Total. X spins =              0
(PID.TID 0000.0001) //            Avg. X spins =       0.00E+00
(PID.TID 0000.0001) //         No. Y exchanges =              0
(PID.TID 0000.0001) //            Max. Y spins =              0
(PID.TID 0000.0001) //            Min. Y spins =     1000000000
(PID.TID 0000.0001) //          Total. Y spins =              0
(PID.TID 0000.0001) //            Avg. Y spins =       0.00E+00
(PID.TID 0000.0001) // o Thread number: 000001
(PID.TID 0000.0001) //            No. barriers =          12332
(PID.TID 0000.0001) //      Max. barrier spins =              1
(PID.TID 0000.0001) //      Min. barrier spins =              1
(PID.TID 0000.0001) //     Total barrier spins =          12332
(PID.TID 0000.0001) //      Avg. barrier spins =       1.00E+00
PROGRAM MAIN: Execution ended Normally
